LTspice 24.0.12 for Windows
Circuit: * C:\FACULTAD\Materias--4to-2do\Sintesis de Redes Activas\sintesis_redes_activas\Tp1\LTspice_archivos\Draft5.asc
Start Time: Sun Aug 25 19:50:51 2024
solver = Normal
Maximum thread count: 8
tnom = 27
temp = 27
method = modified trap
Direct Newton iteration failed to find .op point.  (Use ".option noopiter" to skip.)
Starting Gmin stepping
Gmin = 10
Gmin = 1.07374
Gmin = 0.115292
Gmin = 0.0123794
Gmin = 0.00132923
Gmin = 0.000142725
Gmin = 1.5325e-05
vernier = 0.5
vernier = 0.25
vernier = 0.125
Gmin = 8.94308e-06
vernier = 0.166667
vernier = 0.222222
Gmin = 5.90778e-06
vernier = 0.296296
Gmin = 3.09952e-06
vernier = 0.395061
vernier = 0.526748
Gmin = 1.07389e-06
vernier = 0.702331
vernier = 0.936441
Gmin = 2.08584e-07
vernier = 1
Gmin = 2.35724e-08
Gmin = 2.53107e-09
Gmin = 2.71772e-10
Gmin = 2.91812e-11
Gmin = 3.13331e-12
Gmin = 3.36437e-13
Gmin = 0
Gmin stepping succeeded in finding the operating point.

Total elapsed time: 1.068 seconds.

