LTspice 24.0.12 for Windows
Circuit: 0
Start Time: Sat Aug 24 17:51:06 2024
Fatal Error: Multiple instances of "A"
