
**** 11/29/24 16:22:55 *** PSpice 23.1.0 (29 September 2023) ** ID# 0 ********

 ** Profile: "SCHEMATIC1-Sim_notch"  [ D:\GD\Sintesis de redes activas\sintesis_redes_activas\Extra_Filtro_Notch\filtro_notch-pspicef


 ****     CIRCUIT DESCRIPTION


******************************************************************************




** Creating circuit file "Sim_notch.cir" 
** WARNING: THIS AUTOMATICALLY GENERATED FILE MAY BE OVERWRITTEN BY SUBSEQUENT SIMULATIONS

*Libraries: 
* Profile Libraries :
* Local Libraries :
* From [PSPICE NETLIST] section of C:\Users\maria\AppData\Roaming\SBP_23.1\cdssetup\OrCAD_PSpice\23.1.0\PSpice.ini file:
.lib "nom.lib" 

*Analysis directives: 
.AC DEC 100 10 100k
.MC 50 AC V([OUT]) YMAX OUTPUT ALL 
.OPTIONS DISTRIBUTION GAUSS
.OPTIONS ADVCONV
.PROBE64 V(alias(*)) I(alias(*)) W(alias(*)) D(alias(*)) NOISE(alias(*)) 
.INC "..\SCHEMATIC1.net" 



**** INCLUDING SCHEMATIC1.net ****
* source FILTRO_NOTCH
X_U1A         N05073 OUTPB N04642 N04654 OUTPB LM324
V_V1         N04642 0 10V
V_V2         0 N04654 10V
R_R1pb         IN N04884 R_R1pb 10k TC=0,0 
.model        R_R1pb RES R=1 DEV=10% TC1=0 TC2=0
R_R2pb         N04884 N05073 R_R2pb 10k TC=0,0 
.model        R_R2pb RES R=1 DEV=10% TC1=0 TC2=0
C_C1pb         0 N05073 C_C1pb 15.9n  TC=0,0 
.model        C_C1pb CAP C=1 DEV=10% TC1=0 TC2=0 VC1=0 VC2=0
C_C2pb         N04884 OUTPB C_C2pb 6.36u  TC=0,0 
.model        C_C2pb CAP C=1 DEV=10% TC1=0 TC2=0 VC1=0 VC2=0
X_U1B         N06276 OUTPA N06112 N06444 OUTPA LM324
V_V4         N06112 0 10V
V_V6         0 N06444 10V
V_V5         IN 0  AC 1
+SIN 0 100mV 1k 0 0 0
R_R1pa         N06142 OUTPA R_R1pa 1.59k TC=0,0 
.model        R_R1pa RES R=1 DEV=10% TC1=0 TC2=0
R_R2pa         0 N06276 R_R2pa 636k TC=0,0 
.model        R_R2pa RES R=1 DEV=10% TC1=0 TC2=0
C_C2pa         N06142 N06276 C_C2pa 100n  TC=0,0 
.model        C_C2pa CAP C=1 DEV=10% TC1=0 TC2=0 VC1=0 VC2=0
C_C1pa         IN N06142  100n  TC=0,0 
R_RiPB         OUTPB N07525 R_RiPB 10k TC=0,0 
.model        R_RiPB RES R=1 DEV=10% TC1=0 TC2=0
R_RiPA         OUTPA N07525 R_RiPA 10k TC=0,0 
.model        R_RiPA RES R=1 DEV=10% TC1=0 TC2=0
X_U1C         0 N07525 N04642 N04654 OUT LM324
R_Rf         N07525 OUT R_Rf 10k TC=0,0 
.model        R_Rf RES R=1 DEV=10% TC1=0 TC2=0
R_Rload         0 OUT  5k TC=0,0 

**** RESUMING Sim_notch.cir ****
.END

**** 11/29/24 16:22:55 *** PSpice 23.1.0 (29 September 2023) ** ID# 0 ********

 ** Profile: "SCHEMATIC1-Sim_notch"  [ D:\GD\Sintesis de redes activas\sintesis_redes_activas\Extra_Filtro_Notch\filtro_notch-pspicef


 ****     Diode MODEL PARAMETERS


******************************************************************************




               X_U1A.dx        X_U1A.dy        X_U1B.dx        X_U1B.dy        
          IS  800.000000E-18  800.000000E-18  800.000000E-18  800.000000E-18 
          RS    1               1.000000E-03    1               1.000000E-03 
         CJO                   10.000000E-12                   10.000000E-12 


               X_U1C.dx        X_U1C.dy        
          IS  800.000000E-18  800.000000E-18 
          RS    1               1.000000E-03 
         CJO                   10.000000E-12 


**** 11/29/24 16:22:55 *** PSpice 23.1.0 (29 September 2023) ** ID# 0 ********

 ** Profile: "SCHEMATIC1-Sim_notch"  [ D:\GD\Sintesis de redes activas\sintesis_redes_activas\Extra_Filtro_Notch\filtro_notch-pspicef


 ****     BJT MODEL PARAMETERS


******************************************************************************




               X_U1A.qx        X_U1B.qx        X_U1C.qx        
               PNP             PNP             PNP             
       LEVEL    1               1               1            
          IS  800.000000E-18  800.000000E-18  800.000000E-18 
          BF  166.7           166.7           166.7          
          NF    1               1               1            
          BR    1               1               1            
          NR    1               1               1            
         ISS    0               0               0            
          RE    0               0               0            
          RC    0               0               0            
         CJE    0               0               0            
         VJE     .75             .75             .75         
         CJC    0               0               0            
         VJC     .75             .75             .75         
         MJC     .33             .33             .33         
        XCJC    1               1               1            
         CJS    0               0               0            
         VJS     .75             .75             .75         
          KF    0               0               0            
          AF    1               1               1            
          CN    2.2             2.2             2.2          
           D     .52             .52             .52         


**** 11/29/24 16:22:55 *** PSpice 23.1.0 (29 September 2023) ** ID# 0 ********

 ** Profile: "SCHEMATIC1-Sim_notch"  [ D:\GD\Sintesis de redes activas\sintesis_redes_activas\Extra_Filtro_Notch\filtro_notch-pspicef


 ****     Resistor MODEL PARAMETERS


******************************************************************************




               R_R1pb          R_R2pb          R_R1pa          R_R2pa          
           R    1               1               1               1            


               R_RiPB          R_RiPA          R_Rf            
           R    1               1               1            


**** 11/29/24 16:22:55 *** PSpice 23.1.0 (29 September 2023) ** ID# 0 ********

 ** Profile: "SCHEMATIC1-Sim_notch"  [ D:\GD\Sintesis de redes activas\sintesis_redes_activas\Extra_Filtro_Notch\filtro_notch-pspicef


 ****     Capacitor MODEL PARAMETERS


******************************************************************************




               C_C1pb          C_C2pb          C_C2pa          
           C    1               1               1            


**** 11/29/24 16:22:55 *** PSpice 23.1.0 (29 September 2023) ** ID# 0 ********

 ** Profile: "SCHEMATIC1-Sim_notch"  [ D:\GD\Sintesis de redes activas\sintesis_redes_activas\Extra_Filtro_Notch\filtro_notch-pspicef


 ****     Current Controlled Switch MODEL PARAMETERS


******************************************************************************




               X_U1A.sw2       X_U1A.sw1       X_U1A.sw3       X_U1A.sw4       
         RON    1               1               1               1            
        ROFF   10.000000E+06   10.000000E+06   10.000000E+06   10.000000E+06 
         ION    0              -1.000000E-06   -1.000000E-06    0            
        IOFF   -1.000000E-06    0               0              -1.000000E-06 


               X_U1B.sw2       X_U1B.sw1       X_U1B.sw3       X_U1B.sw4       
         RON    1               1               1               1            
        ROFF   10.000000E+06   10.000000E+06   10.000000E+06   10.000000E+06 
         ION    0              -1.000000E-06   -1.000000E-06    0            
        IOFF   -1.000000E-06    0               0              -1.000000E-06 


               X_U1C.sw2       X_U1C.sw1       X_U1C.sw3       X_U1C.sw4       
         RON    1               1               1               1            
        ROFF   10.000000E+06   10.000000E+06   10.000000E+06   10.000000E+06 
         ION    0              -1.000000E-06   -1.000000E-06    0            
        IOFF   -1.000000E-06    0               0              -1.000000E-06 


**** 11/29/24 16:22:55 *** PSpice 23.1.0 (29 September 2023) ** ID# 0 ********

 ** Profile: "SCHEMATIC1-Sim_notch"  [ D:\GD\Sintesis de redes activas\sintesis_redes_activas\Extra_Filtro_Notch\filtro_notch-pspicef


 ****     SMALL SIGNAL BIAS SOLUTION       TEMPERATURE =   27.000 DEG C

                      MONTE CARLO NOMINAL

******************************************************************************



 NODE   VOLTAGE     NODE   VOLTAGE     NODE   VOLTAGE     NODE   VOLTAGE


(   IN)    0.0000  (  OUT)    -.0300  (OUTPA)     .0282  (OUTPB) 701.9E-06      

(N04642)   10.0000 (N04654)  -10.0000 (N04884) 447.4E-06 (N05073) 894.7E-06     

(N06112)   10.0000 (N06142)     .0282 (N06276)     .0284 (N06444)  -10.0000     

(N07525)-192.2E-06 (X_U1A.6)-133.2E-09                   (X_U1A.7) 704.1E-06    

(X_U1A.8) 704.1E-06                   (X_U1A.9)    0.0000                       

(X_U1A.a)   10.0000                   (X_U1A.b)-1.044E-06                       

(X_U1B.6)-5.364E-06                   (X_U1B.7)     .0284                       

(X_U1B.8)     .0284                   (X_U1B.9)    0.0000                       

(X_U1B.a)   10.0000                   (X_U1B.b)-3.799E-06                       

(X_U1C.6) 5.778E-06                   (X_U1C.7)    -.0304                       

(X_U1C.8)    -.0304                   (X_U1C.9)    0.0000                       

(X_U1C.a) 9.972E-06                   (X_U1C.b)  -10.0000                       

(X_U1A.10)     .6085                  (X_U1A.11)   -9.9602                      

(X_U1A.12)   -9.9604                  (X_U1A.13)     .5946                      

(X_U1A.14)     .5946                  (X_U1A.53)    8.5000                      

(X_U1A.54)   -9.1780                  (X_U1A.90) 44.46E-06                      

(X_U1A.91)   40.0000                  (X_U1A.92)  -40.0000                      

(X_U1A.99)    0.0000                  (X_U1B.10)     .6360                      

(X_U1B.11)   -9.9602                  (X_U1B.12)   -9.9604                      

(X_U1B.13)     .6221                  (X_U1B.14)     .6222                      

(X_U1B.53)    8.5000                  (X_U1B.54)   -9.1780                      

(X_U1B.90)     .0028                  (X_U1B.91)   40.0000                      

(X_U1B.92)  -40.0000                  (X_U1B.99)    0.0000                      

(X_U1C.10)     .6076                  (X_U1C.11)   -9.9602                      

(X_U1C.12)   -9.9604                  (X_U1C.13)     .5937                      

(X_U1C.14)     .5937                  (X_U1C.53)    8.5000                      

(X_U1C.54)   -9.1780                  (X_U1C.90)    -.0090                      

(X_U1C.91)   40.0000                  (X_U1C.92)  -40.0000                      

(X_U1C.99)    0.0000                  




    VOLTAGE SOURCE CURRENTS
    NAME         CURRENT

    V_V1        -4.437E-03
    V_V2        -4.445E-03
    V_V4        -2.221E-03
    V_V6        -2.218E-03
    V_V5         4.474E-08
    X_U1A.vb    -1.332E-12
    X_U1A.vc     8.500E-12
    X_U1A.ve     1.044E-11
    X_U1A.vlim   4.446E-08
    X_U1A.vlp   -4.000E-11
    X_U1A.vln   -4.000E-11
    X_U1B.vb    -5.364E-11
    X_U1B.vc     8.473E-12
    X_U1B.ve     1.046E-11
    X_U1B.vlim   2.799E-06
    X_U1B.vlp   -4.000E-11
    X_U1B.vln   -4.001E-11
    X_U1C.vb     5.778E-11
    X_U1C.vc     8.531E-12
    X_U1C.ve     1.041E-11
    X_U1C.vlim  -8.972E-06
    X_U1C.vlp   -4.001E-11
    X_U1C.vln   -3.999E-11

    TOTAL POWER DISSIPATION   1.33E-01  WATTS


**** 11/29/24 16:22:55 *** PSpice 23.1.0 (29 September 2023) ** ID# 0 ********

 ** Profile: "SCHEMATIC1-Sim_notch"  [ D:\GD\Sintesis de redes activas\sintesis_redes_activas\Extra_Filtro_Notch\filtro_notch-pspicef


 ****     SMALL SIGNAL BIAS SOLUTION       TEMPERATURE =   27.000 DEG C

                      MONTE CARLO PASS 2

******************************************************************************



 NODE   VOLTAGE     NODE   VOLTAGE     NODE   VOLTAGE     NODE   VOLTAGE


(   IN)    0.0000  (  OUT)    -.0288  (OUTPA)     .0305  (OUTPB) 681.8E-06      

(N04642)   10.0000 (N04654)  -10.0000 (N04884) 462.2E-06 (N05073) 874.6E-06     

(N06112)   10.0000 (N06142)     .0305 (N06276)     .0307 (N06444)  -10.0000     

(N07525)-192.2E-06 (X_U1A.6)-129.5E-09                   (X_U1A.7) 684.5E-06    

(X_U1A.8) 684.5E-06                   (X_U1A.9)    0.0000                       

(X_U1A.a)   10.0000                   (X_U1A.b)-1.053E-06                       

(X_U1B.6)-5.782E-06                   (X_U1B.7)     .0306                       

(X_U1B.8)     .0306                   (X_U1B.9)    0.0000                       

(X_U1B.a)   10.0000                   (X_U1B.b)-3.914E-06                       

(X_U1C.6) 5.550E-06                   (X_U1C.7)    -.0292                       

(X_U1C.8)    -.0292                   (X_U1C.9)    0.0000                       

(X_U1C.a) 9.856E-06                   (X_U1C.b)  -10.0000                       

(X_U1A.10)     .6085                  (X_U1A.11)   -9.9602                      

(X_U1A.12)   -9.9604                  (X_U1A.13)     .5945                      

(X_U1A.14)     .5946                  (X_U1A.53)    8.5000                      

(X_U1A.54)   -9.1780                  (X_U1A.90) 52.90E-06                      

(X_U1A.91)   40.0000                  (X_U1A.92)  -40.0000                      

(X_U1A.99)    0.0000                  (X_U1B.10)     .6382                      

(X_U1B.11)   -9.9602                  (X_U1B.12)   -9.9604                      

(X_U1B.13)     .6243                  (X_U1B.14)     .6244                      

(X_U1B.53)    8.5000                  (X_U1B.54)   -9.1780                      

(X_U1B.90)     .0029                  (X_U1B.91)   40.0000                      

(X_U1B.92)  -40.0000                  (X_U1B.99)    0.0000                      

(X_U1C.10)     .6076                  (X_U1C.11)   -9.9602                      

(X_U1C.12)   -9.9604                  (X_U1C.13)     .5937                      

(X_U1C.14)     .5937                  (X_U1C.53)    8.5000                      

(X_U1C.54)   -9.1780                  (X_U1C.90)    -.0089                      

(X_U1C.91)   40.0000                  (X_U1C.92)  -40.0000                      

(X_U1C.99)    0.0000                  




    VOLTAGE SOURCE CURRENTS
    NAME         CURRENT

    V_V1        -4.437E-03
    V_V2        -4.445E-03
    V_V4        -2.221E-03
    V_V6        -2.218E-03
    V_V5         4.474E-08
    X_U1A.vb    -1.295E-12
    X_U1A.vc     8.500E-12
    X_U1A.ve     1.044E-11
    X_U1A.vlim   5.290E-08
    X_U1A.vlp   -4.000E-11
    X_U1A.vln   -4.000E-11
    X_U1B.vb    -5.782E-11
    X_U1B.vc     8.470E-12
    X_U1B.ve     1.047E-11
    X_U1B.vlim   2.914E-06
    X_U1B.vlp   -4.000E-11
    X_U1B.vln   -4.001E-11
    X_U1C.vb     5.550E-11
    X_U1C.vc     8.530E-12
    X_U1C.ve     1.041E-11
    X_U1C.vlim  -8.856E-06
    X_U1C.vlp   -4.001E-11
    X_U1C.vln   -3.999E-11

    TOTAL POWER DISSIPATION   1.33E-01  WATTS


**** 11/29/24 16:22:55 *** PSpice 23.1.0 (29 September 2023) ** ID# 0 ********

 ** Profile: "SCHEMATIC1-Sim_notch"  [ D:\GD\Sintesis de redes activas\sintesis_redes_activas\Extra_Filtro_Notch\filtro_notch-pspicef


 ****     SMALL SIGNAL BIAS SOLUTION       TEMPERATURE =   27.000 DEG C

                      MONTE CARLO PASS 3

******************************************************************************



 NODE   VOLTAGE     NODE   VOLTAGE     NODE   VOLTAGE     NODE   VOLTAGE


(   IN)    0.0000  (  OUT)    -.0335  (OUTPA)     .0281  (OUTPB) 728.4E-06      

(N04642)   10.0000 (N04654)  -10.0000 (N04884) 419.8E-06 (N05073) 921.2E-06     

(N06112)   10.0000 (N06142)     .0281 (N06276)     .0283 (N06444)  -10.0000     

(N07525)-192.2E-06 (X_U1A.6)-138.2E-09                   (X_U1A.7) 730.6E-06    

(X_U1A.8) 730.6E-06                   (X_U1A.9)    0.0000                       

(X_U1A.a)   10.0000                   (X_U1A.b)-1.042E-06                       

(X_U1B.6)-5.337E-06                   (X_U1B.7)     .0282                       

(X_U1B.8)     .0282                   (X_U1B.9)    0.0000                       

(X_U1B.a)   10.0000                   (X_U1B.b)-4.259E-06                       

(X_U1C.6) 6.451E-06                   (X_U1C.7)    -.0340                       

(X_U1C.8)    -.0340                   (X_U1C.9)    0.0000                       

(X_U1C.a) 11.13E-06                   (X_U1C.b)  -10.0000                       

(X_U1A.10)     .6085                  (X_U1A.11)   -9.9602                      

(X_U1A.12)   -9.9604                  (X_U1A.13)     .5946                      

(X_U1A.14)     .5947                  (X_U1A.53)    8.5000                      

(X_U1A.54)   -9.1780                  (X_U1A.90) 42.46E-06                      

(X_U1A.91)   40.0000                  (X_U1A.92)  -40.0000                      

(X_U1A.99)    0.0000                  (X_U1B.10)     .6358                      

(X_U1B.11)   -9.9602                  (X_U1B.12)   -9.9604                      

(X_U1B.13)     .6219                  (X_U1B.14)     .6220                      

(X_U1B.53)    8.5000                  (X_U1B.54)   -9.1780                      

(X_U1B.90)     .0033                  (X_U1B.91)   40.0000                      

(X_U1B.92)  -40.0000                  (X_U1B.99)    0.0000                      

(X_U1C.10)     .6076                  (X_U1C.11)   -9.9602                      

(X_U1C.12)   -9.9604                  (X_U1C.13)     .5937                      

(X_U1C.14)     .5937                  (X_U1C.53)    8.5000                      

(X_U1C.54)   -9.1780                  (X_U1C.90)    -.0101                      

(X_U1C.91)   40.0000                  (X_U1C.92)  -40.0000                      

(X_U1C.99)    0.0000                  




    VOLTAGE SOURCE CURRENTS
    NAME         CURRENT

    V_V1        -4.437E-03
    V_V2        -4.446E-03
    V_V4        -2.222E-03
    V_V6        -2.218E-03
    V_V5         4.474E-08
    X_U1A.vb    -1.382E-12
    X_U1A.vc     8.500E-12
    X_U1A.ve     1.044E-11
    X_U1A.vlim   4.246E-08
    X_U1A.vlp   -4.000E-11
    X_U1A.vln   -4.000E-11
    X_U1B.vb    -5.337E-11
    X_U1B.vc     8.473E-12
    X_U1B.ve     1.046E-11
    X_U1B.vlim   3.259E-06
    X_U1B.vlp   -4.000E-11
    X_U1B.vln   -4.001E-11
    X_U1C.vb     6.451E-11
    X_U1C.vc     8.534E-12
    X_U1C.ve     1.040E-11
    X_U1C.vlim  -1.013E-05
    X_U1C.vlp   -4.001E-11
    X_U1C.vln   -3.999E-11

    TOTAL POWER DISSIPATION   1.33E-01  WATTS


**** 11/29/24 16:22:55 *** PSpice 23.1.0 (29 September 2023) ** ID# 0 ********

 ** Profile: "SCHEMATIC1-Sim_notch"  [ D:\GD\Sintesis de redes activas\sintesis_redes_activas\Extra_Filtro_Notch\filtro_notch-pspicef


 ****     SMALL SIGNAL BIAS SOLUTION       TEMPERATURE =   27.000 DEG C

                      MONTE CARLO PASS 4

******************************************************************************



 NODE   VOLTAGE     NODE   VOLTAGE     NODE   VOLTAGE     NODE   VOLTAGE


(   IN)    0.0000  (  OUT)    -.0378  (OUTPA)     .0369  (OUTPB) 587.6E-06      

(N04642)   10.0000 (N04654)  -10.0000 (N04884) 354.8E-06 (N05073) 780.4E-06     

(N06112)   10.0000 (N06142)     .0369 (N06276)     .0371 (N06444)  -10.0000     

(N07525)-192.1E-06 (X_U1A.6)-111.4E-09                   (X_U1A.7) 589.0E-06    

(X_U1A.8) 589.0E-06                   (X_U1A.9)    0.0000                       

(X_U1A.a)   10.0000                   (X_U1A.b)-1.027E-06                       

(X_U1B.6)-7.010E-06                   (X_U1B.7)     .0371                       

(X_U1B.8)     .0371                   (X_U1B.9)    0.0000                       

(X_U1B.a)   10.0000                   (X_U1B.b)-4.924E-06                       

(X_U1C.6) 7.299E-06                   (X_U1C.7)    -.0384                       

(X_U1C.8)    -.0384                   (X_U1C.9)    0.0000                       

(X_U1C.a) 12.65E-06                   (X_U1C.b)  -10.0000                       

(X_U1A.10)     .6084                  (X_U1A.11)   -9.9602                      

(X_U1A.12)   -9.9604                  (X_U1A.13)     .5944                      

(X_U1A.14)     .5945                  (X_U1A.53)    8.5000                      

(X_U1A.54)   -9.1780                  (X_U1A.90) 26.57E-06                      

(X_U1A.91)   40.0000                  (X_U1A.92)  -40.0000                      

(X_U1A.99)    0.0000                  (X_U1B.10)     .6447                      

(X_U1B.11)   -9.9602                  (X_U1B.12)   -9.9604                      

(X_U1B.13)     .6307                  (X_U1B.14)     .6308                      

(X_U1B.53)    8.5000                  (X_U1B.54)   -9.1780                      

(X_U1B.90)     .0039                  (X_U1B.91)   40.0000                      

(X_U1B.92)  -40.0000                  (X_U1B.99)    0.0000                      

(X_U1C.10)     .6076                  (X_U1C.11)   -9.9602                      

(X_U1C.12)   -9.9604                  (X_U1C.13)     .5937                      

(X_U1C.14)     .5937                  (X_U1C.53)    8.5000                      

(X_U1C.54)   -9.1780                  (X_U1C.90)    -.0117                      

(X_U1C.91)   40.0000                  (X_U1C.92)  -40.0000                      

(X_U1C.99)    0.0000                  




    VOLTAGE SOURCE CURRENTS
    NAME         CURRENT

    V_V1        -4.437E-03
    V_V2        -4.448E-03
    V_V4        -2.222E-03
    V_V6        -2.218E-03
    V_V5         4.474E-08
    X_U1A.vb    -1.114E-12
    X_U1A.vc     8.500E-12
    X_U1A.ve     1.044E-11
    X_U1A.vlim   2.657E-08
    X_U1A.vlp   -4.000E-11
    X_U1A.vln   -4.000E-11
    X_U1B.vb    -7.010E-11
    X_U1B.vc     8.464E-12
    X_U1B.ve     1.047E-11
    X_U1B.vlim   3.924E-06
    X_U1B.vlp   -4.000E-11
    X_U1B.vln   -4.001E-11
    X_U1C.vb     7.299E-11
    X_U1C.vc     8.539E-12
    X_U1C.ve     1.040E-11
    X_U1C.vlim  -1.165E-05
    X_U1C.vlp   -4.001E-11
    X_U1C.vln   -3.999E-11

    TOTAL POWER DISSIPATION   1.33E-01  WATTS


**** 11/29/24 16:22:55 *** PSpice 23.1.0 (29 September 2023) ** ID# 0 ********

 ** Profile: "SCHEMATIC1-Sim_notch"  [ D:\GD\Sintesis de redes activas\sintesis_redes_activas\Extra_Filtro_Notch\filtro_notch-pspicef


 ****     SMALL SIGNAL BIAS SOLUTION       TEMPERATURE =   27.000 DEG C

                      MONTE CARLO PASS 5

******************************************************************************



 NODE   VOLTAGE     NODE   VOLTAGE     NODE   VOLTAGE     NODE   VOLTAGE


(   IN)    0.0000  (  OUT)    -.0263  (OUTPA)     .0251  (OUTPB) 740.4E-06      

(N04642)   10.0000 (N04654)  -10.0000 (N04884) 468.0E-06 (N05073) 933.2E-06     

(N06112)   10.0000 (N06142)     .0251 (N06276)     .0253 (N06444)  -10.0000     

(N07525)-192.2E-06 (X_U1A.6)-140.4E-09                   (X_U1A.7) 742.4E-06    

(X_U1A.8) 742.4E-06                   (X_U1A.9)    0.0000                       

(X_U1A.a)   10.0000                   (X_U1A.b)-1.041E-06                       

(X_U1B.6)-4.768E-06                   (X_U1B.7)     .0252                       

(X_U1B.8)     .0252                   (X_U1B.9)    0.0000                       

(X_U1B.a)   10.0000                   (X_U1B.b)-3.521E-06                       

(X_U1C.6) 5.071E-06                   (X_U1C.7)    -.0267                       

(X_U1C.8)    -.0267                   (X_U1C.9)    0.0000                       

(X_U1C.a) 8.957E-06                   (X_U1C.b)  -10.0000                       

(X_U1A.10)     .6085                  (X_U1A.11)   -9.9602                      

(X_U1A.12)   -9.9604                  (X_U1A.13)     .5946                      

(X_U1A.14)     .5947                  (X_U1A.53)    8.5000                      

(X_U1A.54)   -9.1780                  (X_U1A.90) 40.88E-06                      

(X_U1A.91)   40.0000                  (X_U1A.92)  -40.0000                      

(X_U1A.99)    0.0000                  (X_U1B.10)     .6329                      

(X_U1B.11)   -9.9602                  (X_U1B.12)   -9.9604                      

(X_U1B.13)     .6190                  (X_U1B.14)     .6190                      

(X_U1B.53)    8.5000                  (X_U1B.54)   -9.1780                      

(X_U1B.90)     .0025                  (X_U1B.91)   40.0000                      

(X_U1B.92)  -40.0000                  (X_U1B.99)    0.0000                      

(X_U1C.10)     .6076                  (X_U1C.11)   -9.9602                      

(X_U1C.12)   -9.9604                  (X_U1C.13)     .5937                      

(X_U1C.14)     .5937                  (X_U1C.53)    8.5000                      

(X_U1C.54)   -9.1780                  (X_U1C.90)    -.0080                      

(X_U1C.91)   40.0000                  (X_U1C.92)  -40.0000                      

(X_U1C.99)    0.0000                  




    VOLTAGE SOURCE CURRENTS
    NAME         CURRENT

    V_V1        -4.437E-03
    V_V2        -4.444E-03
    V_V4        -2.221E-03
    V_V6        -2.218E-03
    V_V5         4.474E-08
    X_U1A.vb    -1.404E-12
    X_U1A.vc     8.500E-12
    X_U1A.ve     1.044E-11
    X_U1A.vlim   4.088E-08
    X_U1A.vlp   -4.000E-11
    X_U1A.vln   -4.000E-11
    X_U1B.vb    -4.768E-11
    X_U1B.vc     8.476E-12
    X_U1B.ve     1.046E-11
    X_U1B.vlim   2.521E-06
    X_U1B.vlp   -4.000E-11
    X_U1B.vln   -4.001E-11
    X_U1C.vb     5.071E-11
    X_U1C.vc     8.527E-12
    X_U1C.ve     1.041E-11
    X_U1C.vlim  -7.957E-06
    X_U1C.vlp   -4.001E-11
    X_U1C.vln   -4.000E-11

    TOTAL POWER DISSIPATION   1.33E-01  WATTS


**** 11/29/24 16:22:55 *** PSpice 23.1.0 (29 September 2023) ** ID# 0 ********

 ** Profile: "SCHEMATIC1-Sim_notch"  [ D:\GD\Sintesis de redes activas\sintesis_redes_activas\Extra_Filtro_Notch\filtro_notch-pspicef


 ****     SMALL SIGNAL BIAS SOLUTION       TEMPERATURE =   27.000 DEG C

                      MONTE CARLO PASS 6

******************************************************************************



 NODE   VOLTAGE     NODE   VOLTAGE     NODE   VOLTAGE     NODE   VOLTAGE


(   IN)    0.0000  (  OUT)    -.0308  (OUTPA)     .0305  (OUTPB) 783.6E-06      

(N04642)   10.0000 (N04654)  -10.0000 (N04884) 526.2E-06 (N05073) 976.4E-06     

(N06112)   10.0000 (N06142)     .0305 (N06276)     .0307 (N06444)  -10.0000     

(N07525)-192.2E-06 (X_U1A.6)-148.8E-09                   (X_U1A.7) 786.5E-06    

(X_U1A.8) 786.5E-06                   (X_U1A.9)    0.0000                       

(X_U1A.a)   10.0000                   (X_U1A.b)-1.058E-06                       

(X_U1B.6)-5.797E-06                   (X_U1B.7)     .0307                       

(X_U1B.8)     .0307                   (X_U1B.9)    0.0000                       

(X_U1B.a)   10.0000                   (X_U1B.b)-4.174E-06                       

(X_U1C.6) 5.946E-06                   (X_U1C.7)    -.0313                       

(X_U1C.8)    -.0313                   (X_U1C.9)    0.0000                       

(X_U1C.a) 10.53E-06                   (X_U1C.b)  -10.0000                       

(X_U1A.10)     .6086                  (X_U1A.11)   -9.9602                      

(X_U1A.12)   -9.9604                  (X_U1A.13)     .5946                      

(X_U1A.14)     .5947                  (X_U1A.53)    8.5000                      

(X_U1A.54)   -9.1780                  (X_U1A.90) 58.47E-06                      

(X_U1A.91)   40.0000                  (X_U1A.92)  -40.0000                      

(X_U1A.99)    0.0000                  (X_U1B.10)     .6383                      

(X_U1B.11)   -9.9602                  (X_U1B.12)   -9.9604                      

(X_U1B.13)     .6244                  (X_U1B.14)     .6244                      

(X_U1B.53)    8.5000                  (X_U1B.54)   -9.1780                      

(X_U1B.90)     .0032                  (X_U1B.91)   40.0000                      

(X_U1B.92)  -40.0000                  (X_U1B.99)    0.0000                      

(X_U1C.10)     .6076                  (X_U1C.11)   -9.9602                      

(X_U1C.12)   -9.9604                  (X_U1C.13)     .5937                      

(X_U1C.14)     .5937                  (X_U1C.53)    8.5000                      

(X_U1C.54)   -9.1780                  (X_U1C.90)    -.0095                      

(X_U1C.91)   40.0000                  (X_U1C.92)  -40.0000                      

(X_U1C.99)    0.0000                  




    VOLTAGE SOURCE CURRENTS
    NAME         CURRENT

    V_V1        -4.437E-03
    V_V2        -4.446E-03
    V_V4        -2.221E-03
    V_V6        -2.218E-03
    V_V5         4.474E-08
    X_U1A.vb    -1.488E-12
    X_U1A.vc     8.500E-12
    X_U1A.ve     1.044E-11
    X_U1A.vlim   5.847E-08
    X_U1A.vlp   -4.000E-11
    X_U1A.vln   -4.000E-11
    X_U1B.vb    -5.797E-11
    X_U1B.vc     8.470E-12
    X_U1B.ve     1.047E-11
    X_U1B.vlim   3.174E-06
    X_U1B.vlp   -4.000E-11
    X_U1B.vln   -4.001E-11
    X_U1C.vb     5.946E-11
    X_U1C.vc     8.532E-12
    X_U1C.ve     1.040E-11
    X_U1C.vlim  -9.532E-06
    X_U1C.vlp   -4.001E-11
    X_U1C.vln   -3.999E-11

    TOTAL POWER DISSIPATION   1.33E-01  WATTS


**** 11/29/24 16:22:55 *** PSpice 23.1.0 (29 September 2023) ** ID# 0 ********

 ** Profile: "SCHEMATIC1-Sim_notch"  [ D:\GD\Sintesis de redes activas\sintesis_redes_activas\Extra_Filtro_Notch\filtro_notch-pspicef


 ****     SMALL SIGNAL BIAS SOLUTION       TEMPERATURE =   27.000 DEG C

                      MONTE CARLO PASS 7

******************************************************************************



 NODE   VOLTAGE     NODE   VOLTAGE     NODE   VOLTAGE     NODE   VOLTAGE


(   IN)    0.0000  (  OUT)    -.0342  (OUTPA)     .0281  (OUTPB) 659.0E-06      

(N04642)   10.0000 (N04654)  -10.0000 (N04884) 485.3E-06 (N05073) 851.7E-06     

(N06112)   10.0000 (N06142)     .0281 (N06276)     .0283 (N06444)  -10.0000     

(N07525)-192.2E-06 (X_U1A.6)-124.9E-09                   (X_U1A.7) 660.5E-06    

(X_U1A.8) 660.5E-06                   (X_U1A.9)    0.0000                       

(X_U1A.a)   10.0000                   (X_U1A.b)-1.031E-06                       

(X_U1B.6)-5.345E-06                   (X_U1B.7)     .0283                       

(X_U1B.8)     .0283                   (X_U1B.9)    0.0000                       

(X_U1B.a)   10.0000                   (X_U1B.b)-4.174E-06                       

(X_U1C.6) 6.584E-06                   (X_U1C.7)    -.0347                       

(X_U1C.8)    -.0347                   (X_U1C.9)    0.0000                       

(X_U1C.a) 11.17E-06                   (X_U1C.b)  -10.0000                       

(X_U1A.10)     .6084                  (X_U1A.11)   -9.9602                      

(X_U1A.12)   -9.9604                  (X_U1A.13)     .5945                      

(X_U1A.14)     .5946                  (X_U1A.53)    8.5000                      

(X_U1A.54)   -9.1780                  (X_U1A.90) 31.17E-06                      

(X_U1A.91)   40.0000                  (X_U1A.92)  -40.0000                      

(X_U1A.99)    0.0000                  (X_U1B.10)     .6359                      

(X_U1B.11)   -9.9602                  (X_U1B.12)   -9.9604                      

(X_U1B.13)     .6220                  (X_U1B.14)     .6220                      

(X_U1B.53)    8.5000                  (X_U1B.54)   -9.1780                      

(X_U1B.90)     .0032                  (X_U1B.91)   40.0000                      

(X_U1B.92)  -40.0000                  (X_U1B.99)    0.0000                      

(X_U1C.10)     .6076                  (X_U1C.11)   -9.9602                      

(X_U1C.12)   -9.9604                  (X_U1C.13)     .5937                      

(X_U1C.14)     .5937                  (X_U1C.53)    8.5000                      

(X_U1C.54)   -9.1780                  (X_U1C.90)    -.0102                      

(X_U1C.91)   40.0000                  (X_U1C.92)  -40.0000                      

(X_U1C.99)    0.0000                  




    VOLTAGE SOURCE CURRENTS
    NAME         CURRENT

    V_V1        -4.437E-03
    V_V2        -4.446E-03
    V_V4        -2.221E-03
    V_V6        -2.218E-03
    V_V5         4.474E-08
    X_U1A.vb    -1.249E-12
    X_U1A.vc     8.500E-12
    X_U1A.ve     1.044E-11
    X_U1A.vlim   3.117E-08
    X_U1A.vlp   -4.000E-11
    X_U1A.vln   -4.000E-11
    X_U1B.vb    -5.345E-11
    X_U1B.vc     8.473E-12
    X_U1B.ve     1.046E-11
    X_U1B.vlim   3.174E-06
    X_U1B.vlp   -4.000E-11
    X_U1B.vln   -4.001E-11
    X_U1C.vb     6.584E-11
    X_U1C.vc     8.535E-12
    X_U1C.ve     1.040E-11
    X_U1C.vlim  -1.017E-05
    X_U1C.vlp   -4.001E-11
    X_U1C.vln   -3.999E-11

    TOTAL POWER DISSIPATION   1.33E-01  WATTS


**** 11/29/24 16:22:55 *** PSpice 23.1.0 (29 September 2023) ** ID# 0 ********

 ** Profile: "SCHEMATIC1-Sim_notch"  [ D:\GD\Sintesis de redes activas\sintesis_redes_activas\Extra_Filtro_Notch\filtro_notch-pspicef


 ****     SMALL SIGNAL BIAS SOLUTION       TEMPERATURE =   27.000 DEG C

                      MONTE CARLO PASS 8

******************************************************************************



 NODE   VOLTAGE     NODE   VOLTAGE     NODE   VOLTAGE     NODE   VOLTAGE


(   IN)    0.0000  (  OUT)    -.0307  (OUTPA)     .0305  (OUTPB) 693.5E-06      

(N04642)   10.0000 (N04654)  -10.0000 (N04884) 389.8E-06 (N05073) 886.3E-06     

(N06112)   10.0000 (N06142)     .0305 (N06276)     .0307 (N06444)  -10.0000     

(N07525)-192.2E-06 (X_U1A.6)-131.7E-09                   (X_U1A.7) 695.8E-06    

(X_U1A.8) 695.8E-06                   (X_U1A.9)    0.0000                       

(X_U1A.a)   10.0000                   (X_U1A.b)-1.047E-06                       

(X_U1B.6)-5.797E-06                   (X_U1B.7)     .0307                       

(X_U1B.8)     .0307                   (X_U1B.9)    0.0000                       

(X_U1B.a)   10.0000                   (X_U1B.b)-4.174E-06                       

(X_U1C.6) 5.926E-06                   (X_U1C.7)    -.0312                       

(X_U1C.8)    -.0312                   (X_U1C.9)    0.0000                       

(X_U1C.a) 10.50E-06                   (X_U1C.b)  -10.0000                       

(X_U1A.10)     .6085                  (X_U1A.11)   -9.9602                      

(X_U1A.12)   -9.9604                  (X_U1A.13)     .5946                      

(X_U1A.14)     .5946                  (X_U1A.53)    8.5000                      

(X_U1A.54)   -9.1780                  (X_U1A.90) 46.86E-06                      

(X_U1A.91)   40.0000                  (X_U1A.92)  -40.0000                      

(X_U1A.99)    0.0000                  (X_U1B.10)     .6383                      

(X_U1B.11)   -9.9602                  (X_U1B.12)   -9.9604                      

(X_U1B.13)     .6244                  (X_U1B.14)     .6244                      

(X_U1B.53)    8.5000                  (X_U1B.54)   -9.1780                      

(X_U1B.90)     .0032                  (X_U1B.91)   40.0000                      

(X_U1B.92)  -40.0000                  (X_U1B.99)    0.0000                      

(X_U1C.10)     .6076                  (X_U1C.11)   -9.9602                      

(X_U1C.12)   -9.9604                  (X_U1C.13)     .5937                      

(X_U1C.14)     .5937                  (X_U1C.53)    8.5000                      

(X_U1C.54)   -9.1780                  (X_U1C.90)    -.0095                      

(X_U1C.91)   40.0000                  (X_U1C.92)  -40.0000                      

(X_U1C.99)    0.0000                  




    VOLTAGE SOURCE CURRENTS
    NAME         CURRENT

    V_V1        -4.437E-03
    V_V2        -4.446E-03
    V_V4        -2.221E-03
    V_V6        -2.218E-03
    V_V5         4.474E-08
    X_U1A.vb    -1.317E-12
    X_U1A.vc     8.500E-12
    X_U1A.ve     1.044E-11
    X_U1A.vlim   4.686E-08
    X_U1A.vlp   -4.000E-11
    X_U1A.vln   -4.000E-11
    X_U1B.vb    -5.797E-11
    X_U1B.vc     8.470E-12
    X_U1B.ve     1.047E-11
    X_U1B.vlim   3.174E-06
    X_U1B.vlp   -4.000E-11
    X_U1B.vln   -4.001E-11
    X_U1C.vb     5.926E-11
    X_U1C.vc     8.532E-12
    X_U1C.ve     1.040E-11
    X_U1C.vlim  -9.499E-06
    X_U1C.vlp   -4.001E-11
    X_U1C.vln   -3.999E-11

    TOTAL POWER DISSIPATION   1.33E-01  WATTS


**** 11/29/24 16:22:55 *** PSpice 23.1.0 (29 September 2023) ** ID# 0 ********

 ** Profile: "SCHEMATIC1-Sim_notch"  [ D:\GD\Sintesis de redes activas\sintesis_redes_activas\Extra_Filtro_Notch\filtro_notch-pspicef


 ****     SMALL SIGNAL BIAS SOLUTION       TEMPERATURE =   27.000 DEG C

                      MONTE CARLO PASS 9

******************************************************************************



 NODE   VOLTAGE     NODE   VOLTAGE     NODE   VOLTAGE     NODE   VOLTAGE


(   IN)    0.0000  (  OUT)    -.0343  (OUTPA)     .0282  (OUTPB) 724.4E-06      

(N04642)   10.0000 (N04654)  -10.0000 (N04884) 498.3E-06 (N05073) 917.2E-06     

(N06112)   10.0000 (N06142)     .0282 (N06276)     .0284 (N06444)  -10.0000     

(N07525)-192.2E-06 (X_U1A.6)-137.4E-09                   (X_U1A.7) 726.3E-06    

(X_U1A.8) 726.3E-06                   (X_U1A.9)    0.0000                       

(X_U1A.a)   10.0000                   (X_U1A.b)-1.037E-06                       

(X_U1B.6)-5.364E-06                   (X_U1B.7)     .0284                       

(X_U1B.8)     .0284                   (X_U1B.9)    0.0000                       

(X_U1B.a)   10.0000                   (X_U1B.b)-4.185E-06                       

(X_U1C.6) 6.618E-06                   (X_U1C.7)    -.0348                       

(X_U1C.8)    -.0348                   (X_U1C.9)    0.0000                       

(X_U1C.a) 11.22E-06                   (X_U1C.b)  -10.0000                       

(X_U1A.10)     .6085                  (X_U1A.11)   -9.9602                      

(X_U1A.12)   -9.9604                  (X_U1A.13)     .5946                      

(X_U1A.14)     .5947                  (X_U1A.53)    8.5000                      

(X_U1A.54)   -9.1780                  (X_U1A.90) 37.03E-06                      

(X_U1A.91)   40.0000                  (X_U1A.92)  -40.0000                      

(X_U1A.99)    0.0000                  (X_U1B.10)     .6360                      

(X_U1B.11)   -9.9602                  (X_U1B.12)   -9.9604                      

(X_U1B.13)     .6221                  (X_U1B.14)     .6221                      

(X_U1B.53)    8.5000                  (X_U1B.54)   -9.1780                      

(X_U1B.90)     .0032                  (X_U1B.91)   40.0000                      

(X_U1B.92)  -40.0000                  (X_U1B.99)    0.0000                      

(X_U1C.10)     .6076                  (X_U1C.11)   -9.9602                      

(X_U1C.12)   -9.9604                  (X_U1C.13)     .5937                      

(X_U1C.14)     .5937                  (X_U1C.53)    8.5000                      

(X_U1C.54)   -9.1780                  (X_U1C.90)    -.0102                      

(X_U1C.91)   40.0000                  (X_U1C.92)  -40.0000                      

(X_U1C.99)    0.0000                  




    VOLTAGE SOURCE CURRENTS
    NAME         CURRENT

    V_V1        -4.437E-03
    V_V2        -4.446E-03
    V_V4        -2.221E-03
    V_V6        -2.218E-03
    V_V5         4.474E-08
    X_U1A.vb    -1.374E-12
    X_U1A.vc     8.500E-12
    X_U1A.ve     1.044E-11
    X_U1A.vlim   3.703E-08
    X_U1A.vlp   -4.000E-11
    X_U1A.vln   -4.000E-11
    X_U1B.vb    -5.364E-11
    X_U1B.vc     8.473E-12
    X_U1B.ve     1.046E-11
    X_U1B.vlim   3.185E-06
    X_U1B.vlp   -4.000E-11
    X_U1B.vln   -4.001E-11
    X_U1C.vb     6.618E-11
    X_U1C.vc     8.535E-12
    X_U1C.ve     1.040E-11
    X_U1C.vlim  -1.022E-05
    X_U1C.vlp   -4.001E-11
    X_U1C.vln   -3.999E-11

    TOTAL POWER DISSIPATION   1.33E-01  WATTS


**** 11/29/24 16:22:55 *** PSpice 23.1.0 (29 September 2023) ** ID# 0 ********

 ** Profile: "SCHEMATIC1-Sim_notch"  [ D:\GD\Sintesis de redes activas\sintesis_redes_activas\Extra_Filtro_Notch\filtro_notch-pspicef


 ****     SMALL SIGNAL BIAS SOLUTION       TEMPERATURE =   27.000 DEG C

                      MONTE CARLO PASS 10

******************************************************************************



 NODE   VOLTAGE     NODE   VOLTAGE     NODE   VOLTAGE     NODE   VOLTAGE


(   IN)    0.0000  (  OUT)    -.0281  (OUTPA)     .0232  (OUTPB) 640.2E-06      

(N04642)   10.0000 (N04654)  -10.0000 (N04884) 425.5E-06 (N05073) 833.0E-06     

(N06112)   10.0000 (N06142)     .0232 (N06276)     .0234 (N06444)  -10.0000     

(N07525)-192.2E-06 (X_U1A.6)-121.6E-09                   (X_U1A.7) 642.4E-06    

(X_U1A.8) 642.4E-06                   (X_U1A.9)    0.0000                       

(X_U1A.a)   10.0000                   (X_U1A.b)-1.044E-06                       

(X_U1B.6)-4.414E-06                   (X_U1B.7)     .0234                       

(X_U1B.8)     .0234                   (X_U1B.9)    0.0000                       

(X_U1B.a)   10.0000                   (X_U1B.b)-3.446E-06                       

(X_U1C.6) 5.407E-06                   (X_U1C.7)    -.0285                       

(X_U1C.8)    -.0285                   (X_U1C.9)    0.0000                       

(X_U1C.a) 9.236E-06                   (X_U1C.b)  -10.0000                       

(X_U1A.10)     .6084                  (X_U1A.11)   -9.9602                      

(X_U1A.12)   -9.9604                  (X_U1A.13)     .5945                      

(X_U1A.14)     .5946                  (X_U1A.53)    8.5000                      

(X_U1A.54)   -9.1780                  (X_U1A.90) 43.75E-06                      

(X_U1A.91)   40.0000                  (X_U1A.92)  -40.0000                      

(X_U1A.99)    0.0000                  (X_U1B.10)     .6310                      

(X_U1B.11)   -9.9602                  (X_U1B.12)   -9.9604                      

(X_U1B.13)     .6171                  (X_U1B.14)     .6172                      

(X_U1B.53)    8.5000                  (X_U1B.54)   -9.1780                      

(X_U1B.90)     .0024                  (X_U1B.91)   40.0000                      

(X_U1B.92)  -40.0000                  (X_U1B.99)    0.0000                      

(X_U1C.10)     .6076                  (X_U1C.11)   -9.9602                      

(X_U1C.12)   -9.9604                  (X_U1C.13)     .5937                      

(X_U1C.14)     .5937                  (X_U1C.53)    8.5000                      

(X_U1C.54)   -9.1780                  (X_U1C.90)    -.0082                      

(X_U1C.91)   40.0000                  (X_U1C.92)  -40.0000                      

(X_U1C.99)    0.0000                  




    VOLTAGE SOURCE CURRENTS
    NAME         CURRENT

    V_V1        -4.437E-03
    V_V2        -4.444E-03
    V_V4        -2.221E-03
    V_V6        -2.218E-03
    V_V5         4.474E-08
    X_U1A.vb    -1.216E-12
    X_U1A.vc     8.500E-12
    X_U1A.ve     1.044E-11
    X_U1A.vlim   4.375E-08
    X_U1A.vlp   -4.000E-11
    X_U1A.vln   -4.000E-11
    X_U1B.vb    -4.414E-11
    X_U1B.vc     8.478E-12
    X_U1B.ve     1.046E-11
    X_U1B.vlim   2.446E-06
    X_U1B.vlp   -4.000E-11
    X_U1B.vln   -4.001E-11
    X_U1C.vb     5.407E-11
    X_U1C.vc     8.529E-12
    X_U1C.ve     1.041E-11
    X_U1C.vlim  -8.236E-06
    X_U1C.vlp   -4.001E-11
    X_U1C.vln   -4.000E-11

    TOTAL POWER DISSIPATION   1.33E-01  WATTS


**** 11/29/24 16:22:55 *** PSpice 23.1.0 (29 September 2023) ** ID# 0 ********

 ** Profile: "SCHEMATIC1-Sim_notch"  [ D:\GD\Sintesis de redes activas\sintesis_redes_activas\Extra_Filtro_Notch\filtro_notch-pspicef


 ****     SMALL SIGNAL BIAS SOLUTION       TEMPERATURE =   27.000 DEG C

                      MONTE CARLO PASS 11

******************************************************************************



 NODE   VOLTAGE     NODE   VOLTAGE     NODE   VOLTAGE     NODE   VOLTAGE


(   IN)    0.0000  (  OUT)    -.0340  (OUTPA)     .0282  (OUTPB) 701.7E-06      

(N04642)   10.0000 (N04654)  -10.0000 (N04884) 382.2E-06 (N05073) 894.5E-06     

(N06112)   10.0000 (N06142)     .0282 (N06276)     .0284 (N06444)  -10.0000     

(N07525)-192.2E-06 (X_U1A.6)-133.5E-09                   (X_U1A.7) 704.9E-06    

(X_U1A.8) 704.9E-06                   (X_U1A.9)    0.0000                       

(X_U1A.a)   10.0000                   (X_U1A.b)-1.064E-06                       

(X_U1B.6)-5.364E-06                   (X_U1B.7)     .0284                       

(X_U1B.8)     .0284                   (X_U1B.9)    0.0000                       

(X_U1B.a)   10.0000                   (X_U1B.b)-4.182E-06                       

(X_U1C.6) 6.564E-06                   (X_U1C.7)    -.0346                       

(X_U1C.8)    -.0346                   (X_U1C.9)    0.0000                       

(X_U1C.a) 11.19E-06                   (X_U1C.b)  -10.0000                       

(X_U1A.10)     .6085                  (X_U1A.11)   -9.9602                      

(X_U1A.12)   -9.9604                  (X_U1A.13)     .5946                      

(X_U1A.14)     .5946                  (X_U1A.53)    8.5000                      

(X_U1A.54)   -9.1780                  (X_U1A.90) 63.70E-06                      

(X_U1A.91)   40.0000                  (X_U1A.92)  -40.0000                      

(X_U1A.99)    0.0000                  (X_U1B.10)     .6360                      

(X_U1B.11)   -9.9602                  (X_U1B.12)   -9.9604                      

(X_U1B.13)     .6221                  (X_U1B.14)     .6221                      

(X_U1B.53)    8.5000                  (X_U1B.54)   -9.1780                      

(X_U1B.90)     .0032                  (X_U1B.91)   40.0000                      

(X_U1B.92)  -40.0000                  (X_U1B.99)    0.0000                      

(X_U1C.10)     .6076                  (X_U1C.11)   -9.9602                      

(X_U1C.12)   -9.9604                  (X_U1C.13)     .5937                      

(X_U1C.14)     .5937                  (X_U1C.53)    8.5000                      

(X_U1C.54)   -9.1780                  (X_U1C.90)    -.0102                      

(X_U1C.91)   40.0000                  (X_U1C.92)  -40.0000                      

(X_U1C.99)    0.0000                  




    VOLTAGE SOURCE CURRENTS
    NAME         CURRENT

    V_V1        -4.437E-03
    V_V2        -4.446E-03
    V_V4        -2.221E-03
    V_V6        -2.218E-03
    V_V5         4.474E-08
    X_U1A.vb    -1.335E-12
    X_U1A.vc     8.500E-12
    X_U1A.ve     1.044E-11
    X_U1A.vlim   6.370E-08
    X_U1A.vlp   -4.000E-11
    X_U1A.vln   -4.000E-11
    X_U1B.vb    -5.364E-11
    X_U1B.vc     8.473E-12
    X_U1B.ve     1.046E-11
    X_U1B.vlim   3.182E-06
    X_U1B.vlp   -4.000E-11
    X_U1B.vln   -4.001E-11
    X_U1C.vb     6.564E-11
    X_U1C.vc     8.535E-12
    X_U1C.ve     1.040E-11
    X_U1C.vlim  -1.019E-05
    X_U1C.vlp   -4.001E-11
    X_U1C.vln   -3.999E-11

    TOTAL POWER DISSIPATION   1.33E-01  WATTS


**** 11/29/24 16:22:55 *** PSpice 23.1.0 (29 September 2023) ** ID# 0 ********

 ** Profile: "SCHEMATIC1-Sim_notch"  [ D:\GD\Sintesis de redes activas\sintesis_redes_activas\Extra_Filtro_Notch\filtro_notch-pspicef


 ****     SMALL SIGNAL BIAS SOLUTION       TEMPERATURE =   27.000 DEG C

                      MONTE CARLO PASS 12

******************************************************************************



 NODE   VOLTAGE     NODE   VOLTAGE     NODE   VOLTAGE     NODE   VOLTAGE


(   IN)    0.0000  (  OUT)    -.0291  (OUTPA)     .0232  (OUTPB) 757.7E-06      

(N04642)   10.0000 (N04654)  -10.0000 (N04884) 483.3E-06 (N05073) 950.5E-06     

(N06112)   10.0000 (N06142)     .0232 (N06276)     .0234 (N06444)  -10.0000     

(N07525)-192.2E-06 (X_U1A.6)-143.7E-09                   (X_U1A.7) 759.5E-06    

(X_U1A.8) 759.5E-06                   (X_U1A.9)    0.0000                       

(X_U1A.a)   10.0000                   (X_U1A.b)-1.037E-06                       

(X_U1B.6)-4.414E-06                   (X_U1B.7)     .0234                       

(X_U1B.8)     .0234                   (X_U1B.9)    0.0000                       

(X_U1B.a)   10.0000                   (X_U1B.b)-3.433E-06                       

(X_U1C.6) 5.600E-06                   (X_U1C.7)    -.0295                       

(X_U1C.8)    -.0295                   (X_U1C.9)    0.0000                       

(X_U1C.a) 9.418E-06                   (X_U1C.b)  -10.0000                       

(X_U1A.10)     .6085                  (X_U1A.11)   -9.9602                      

(X_U1A.12)   -9.9604                  (X_U1A.13)     .5946                      

(X_U1A.14)     .5947                  (X_U1A.53)    8.5000                      

(X_U1A.54)   -9.1780                  (X_U1A.90) 36.60E-06                      

(X_U1A.91)   40.0000                  (X_U1A.92)  -40.0000                      

(X_U1A.99)    0.0000                  (X_U1B.10)     .6310                      

(X_U1B.11)   -9.9602                  (X_U1B.12)   -9.9604                      

(X_U1B.13)     .6171                  (X_U1B.14)     .6172                      

(X_U1B.53)    8.5000                  (X_U1B.54)   -9.1780                      

(X_U1B.90)     .0024                  (X_U1B.91)   40.0000                      

(X_U1B.92)  -40.0000                  (X_U1B.99)    0.0000                      

(X_U1C.10)     .6076                  (X_U1C.11)   -9.9602                      

(X_U1C.12)   -9.9604                  (X_U1C.13)     .5937                      

(X_U1C.14)     .5937                  (X_U1C.53)    8.5000                      

(X_U1C.54)   -9.1780                  (X_U1C.90)    -.0084                      

(X_U1C.91)   40.0000                  (X_U1C.92)  -40.0000                      

(X_U1C.99)    0.0000                  




    VOLTAGE SOURCE CURRENTS
    NAME         CURRENT

    V_V1        -4.437E-03
    V_V2        -4.445E-03
    V_V4        -2.221E-03
    V_V6        -2.218E-03
    V_V5         4.474E-08
    X_U1A.vb    -1.437E-12
    X_U1A.vc     8.500E-12
    X_U1A.ve     1.044E-11
    X_U1A.vlim   3.660E-08
    X_U1A.vlp   -4.000E-11
    X_U1A.vln   -4.000E-11
    X_U1B.vb    -4.414E-11
    X_U1B.vc     8.478E-12
    X_U1B.ve     1.046E-11
    X_U1B.vlim   2.433E-06
    X_U1B.vlp   -4.000E-11
    X_U1B.vln   -4.001E-11
    X_U1C.vb     5.600E-11
    X_U1C.vc     8.530E-12
    X_U1C.ve     1.041E-11
    X_U1C.vlim  -8.418E-06
    X_U1C.vlp   -4.001E-11
    X_U1C.vln   -4.000E-11

    TOTAL POWER DISSIPATION   1.33E-01  WATTS


**** 11/29/24 16:22:55 *** PSpice 23.1.0 (29 September 2023) ** ID# 0 ********

 ** Profile: "SCHEMATIC1-Sim_notch"  [ D:\GD\Sintesis de redes activas\sintesis_redes_activas\Extra_Filtro_Notch\filtro_notch-pspicef


 ****     SMALL SIGNAL BIAS SOLUTION       TEMPERATURE =   27.000 DEG C

                      MONTE CARLO PASS 13

******************************************************************************



 NODE   VOLTAGE     NODE   VOLTAGE     NODE   VOLTAGE     NODE   VOLTAGE


(   IN)    0.0000  (  OUT)    -.0328  (OUTPA)     .0297  (OUTPB) 563.2E-06      

(N04642)   10.0000 (N04654)  -10.0000 (N04884) 394.0E-06 (N05073) 756.0E-06     

(N06112)   10.0000 (N06142)     .0297 (N06276)     .0299 (N06444)  -10.0000     

(N07525)-192.2E-06 (X_U1A.6)-107.1E-09                   (X_U1A.7) 565.2E-06    

(X_U1A.8) 565.2E-06                   (X_U1A.9)    0.0000                       

(X_U1A.a)   10.0000                   (X_U1A.b)-1.040E-06                       

(X_U1B.6)-5.632E-06                   (X_U1B.7)     .0298                       

(X_U1B.8)     .0298                   (X_U1B.9)    0.0000                       

(X_U1B.a)   10.0000                   (X_U1B.b)-3.954E-06                       

(X_U1C.6) 6.316E-06                   (X_U1C.7)    -.0333                       

(X_U1C.8)    -.0333                   (X_U1C.9)    0.0000                       

(X_U1C.a) 10.68E-06                   (X_U1C.b)  -10.0000                       

(X_U1A.10)     .6083                  (X_U1A.11)   -9.9602                      

(X_U1A.12)   -9.9604                  (X_U1A.13)     .5944                      

(X_U1A.14)     .5945                  (X_U1A.53)    8.5000                      

(X_U1A.54)   -9.1780                  (X_U1A.90) 39.55E-06                      

(X_U1A.91)   40.0000                  (X_U1A.92)  -40.0000                      

(X_U1A.99)    0.0000                  (X_U1B.10)     .6374                      

(X_U1B.11)   -9.9602                  (X_U1B.12)   -9.9604                      

(X_U1B.13)     .6235                  (X_U1B.14)     .6236                      

(X_U1B.53)    8.5000                  (X_U1B.54)   -9.1780                      

(X_U1B.90)     .0030                  (X_U1B.91)   40.0000                      

(X_U1B.92)  -40.0000                  (X_U1B.99)    0.0000                      

(X_U1C.10)     .6076                  (X_U1C.11)   -9.9602                      

(X_U1C.12)   -9.9604                  (X_U1C.13)     .5937                      

(X_U1C.14)     .5937                  (X_U1C.53)    8.5000                      

(X_U1C.54)   -9.1780                  (X_U1C.90)    -.0097                      

(X_U1C.91)   40.0000                  (X_U1C.92)  -40.0000                      

(X_U1C.99)    0.0000                  




    VOLTAGE SOURCE CURRENTS
    NAME         CURRENT

    V_V1        -4.437E-03
    V_V2        -4.446E-03
    V_V4        -2.221E-03
    V_V6        -2.218E-03
    V_V5         4.474E-08
    X_U1A.vb    -1.071E-12
    X_U1A.vc     8.500E-12
    X_U1A.ve     1.044E-11
    X_U1A.vlim   3.955E-08
    X_U1A.vlp   -4.000E-11
    X_U1A.vln   -4.000E-11
    X_U1B.vb    -5.632E-11
    X_U1B.vc     8.471E-12
    X_U1B.ve     1.046E-11
    X_U1B.vlim   2.954E-06
    X_U1B.vlp   -4.000E-11
    X_U1B.vln   -4.001E-11
    X_U1C.vb     6.316E-11
    X_U1C.vc     8.534E-12
    X_U1C.ve     1.040E-11
    X_U1C.vlim  -9.683E-06
    X_U1C.vlp   -4.001E-11
    X_U1C.vln   -3.999E-11

    TOTAL POWER DISSIPATION   1.33E-01  WATTS


**** 11/29/24 16:22:55 *** PSpice 23.1.0 (29 September 2023) ** ID# 0 ********

 ** Profile: "SCHEMATIC1-Sim_notch"  [ D:\GD\Sintesis de redes activas\sintesis_redes_activas\Extra_Filtro_Notch\filtro_notch-pspicef


 ****     SMALL SIGNAL BIAS SOLUTION       TEMPERATURE =   27.000 DEG C

                      MONTE CARLO PASS 14

******************************************************************************



 NODE   VOLTAGE     NODE   VOLTAGE     NODE   VOLTAGE     NODE   VOLTAGE


(   IN)    0.0000  (  OUT)    -.0389  (OUTPA)     .0276  (OUTPB) 667.7E-06      

(N04642)   10.0000 (N04654)  -10.0000 (N04884) 471.6E-06 (N05073) 860.4E-06     

(N06112)   10.0000 (N06142)     .0276 (N06276)     .0278 (N06444)  -10.0000     

(N07525)-192.1E-06 (X_U1A.6)-126.9E-09                   (X_U1A.7) 670.1E-06    

(X_U1A.8) 670.1E-06                   (X_U1A.9)    0.0000                       

(X_U1A.a)   10.0000                   (X_U1A.b)-1.049E-06                       

(X_U1B.6)-5.256E-06                   (X_U1B.7)     .0278                       

(X_U1B.8)     .0278                   (X_U1B.9)    0.0000                       

(X_U1B.a)   10.0000                   (X_U1B.b)-4.606E-06                       

(X_U1C.6) 7.491E-06                   (X_U1C.7)    -.0394                       

(X_U1C.8)    -.0394                   (X_U1C.9)    0.0000                       

(X_U1C.a) 12.56E-06                   (X_U1C.b)  -10.0000                       

(X_U1A.10)     .6084                  (X_U1A.11)   -9.9602                      

(X_U1A.12)   -9.9604                  (X_U1A.13)     .5945                      

(X_U1A.14)     .5946                  (X_U1A.53)    8.5000                      

(X_U1A.54)   -9.1780                  (X_U1A.90) 49.13E-06                      

(X_U1A.91)   40.0000                  (X_U1A.92)  -40.0000                      

(X_U1A.99)    0.0000                  (X_U1B.10)     .6354                      

(X_U1B.11)   -9.9602                  (X_U1B.12)   -9.9604                      

(X_U1B.13)     .6215                  (X_U1B.14)     .6215                      

(X_U1B.53)    8.5000                  (X_U1B.54)   -9.1780                      

(X_U1B.90)     .0036                  (X_U1B.91)   40.0000                      

(X_U1B.92)  -40.0000                  (X_U1B.99)    0.0000                      

(X_U1C.10)     .6076                  (X_U1C.11)   -9.9602                      

(X_U1C.12)   -9.9604                  (X_U1C.13)     .5937                      

(X_U1C.14)     .5937                  (X_U1C.53)    8.5000                      

(X_U1C.54)   -9.1780                  (X_U1C.90)    -.0116                      

(X_U1C.91)   40.0000                  (X_U1C.92)  -40.0000                      

(X_U1C.99)    0.0000                  




    VOLTAGE SOURCE CURRENTS
    NAME         CURRENT

    V_V1        -4.437E-03
    V_V2        -4.448E-03
    V_V4        -2.222E-03
    V_V6        -2.218E-03
    V_V5         4.474E-08
    X_U1A.vb    -1.269E-12
    X_U1A.vc     8.500E-12
    X_U1A.ve     1.044E-11
    X_U1A.vlim   4.913E-08
    X_U1A.vlp   -4.000E-11
    X_U1A.vln   -4.000E-11
    X_U1B.vb    -5.256E-11
    X_U1B.vc     8.473E-12
    X_U1B.ve     1.046E-11
    X_U1B.vlim   3.606E-06
    X_U1B.vlp   -4.000E-11
    X_U1B.vln   -4.001E-11
    X_U1C.vb     7.491E-11
    X_U1C.vc     8.540E-12
    X_U1C.ve     1.040E-11
    X_U1C.vlim  -1.156E-05
    X_U1C.vlp   -4.001E-11
    X_U1C.vln   -3.999E-11

    TOTAL POWER DISSIPATION   1.33E-01  WATTS


**** 11/29/24 16:22:55 *** PSpice 23.1.0 (29 September 2023) ** ID# 0 ********

 ** Profile: "SCHEMATIC1-Sim_notch"  [ D:\GD\Sintesis de redes activas\sintesis_redes_activas\Extra_Filtro_Notch\filtro_notch-pspicef


 ****     SMALL SIGNAL BIAS SOLUTION       TEMPERATURE =   27.000 DEG C

                      MONTE CARLO PASS 15

******************************************************************************



 NODE   VOLTAGE     NODE   VOLTAGE     NODE   VOLTAGE     NODE   VOLTAGE


(   IN)    0.0000  (  OUT)    -.0265  (OUTPA)     .0272  (OUTPB) 669.2E-06      

(N04642)   10.0000 (N04654)  -10.0000 (N04884) 488.8E-06 (N05073) 862.0E-06     

(N06112)   10.0000 (N06142)     .0272 (N06276)     .0274 (N06444)  -10.0000     

(N07525)-192.2E-06 (X_U1A.6)-127.1E-09                   (X_U1A.7) 671.4E-06    

(X_U1A.8) 671.4E-06                   (X_U1A.9)    0.0000                       

(X_U1A.a)   10.0000                   (X_U1A.b)-1.045E-06                       

(X_U1B.6)-5.168E-06                   (X_U1B.7)     .0274                       

(X_U1B.8)     .0274                   (X_U1B.9)    0.0000                       

(X_U1B.a)   10.0000                   (X_U1B.b)-3.347E-06                       

(X_U1C.6) 5.111E-06                   (X_U1C.7)    -.0269                       

(X_U1C.8)    -.0269                   (X_U1C.9)    0.0000                       

(X_U1C.a) 8.831E-06                   (X_U1C.b)  -10.0000                       

(X_U1A.10)     .6084                  (X_U1A.11)   -9.9602                      

(X_U1A.12)   -9.9604                  (X_U1A.13)     .5945                      

(X_U1A.14)     .5946                  (X_U1A.53)    8.5000                      

(X_U1A.54)   -9.1780                  (X_U1A.90) 45.23E-06                      

(X_U1A.91)   40.0000                  (X_U1A.92)  -40.0000                      

(X_U1A.99)    0.0000                  (X_U1B.10)     .6350                      

(X_U1B.11)   -9.9602                  (X_U1B.12)   -9.9604                      

(X_U1B.13)     .6211                  (X_U1B.14)     .6212                      

(X_U1B.53)    8.5000                  (X_U1B.54)   -9.1780                      

(X_U1B.90)     .0023                  (X_U1B.91)   40.0000                      

(X_U1B.92)  -40.0000                  (X_U1B.99)    0.0000                      

(X_U1C.10)     .6076                  (X_U1C.11)   -9.9602                      

(X_U1C.12)   -9.9604                  (X_U1C.13)     .5937                      

(X_U1C.14)     .5937                  (X_U1C.53)    8.5000                      

(X_U1C.54)   -9.1780                  (X_U1C.90)    -.0078                      

(X_U1C.91)   40.0000                  (X_U1C.92)  -40.0000                      

(X_U1C.99)    0.0000                  




    VOLTAGE SOURCE CURRENTS
    NAME         CURRENT

    V_V1        -4.437E-03
    V_V2        -4.444E-03
    V_V4        -2.221E-03
    V_V6        -2.218E-03
    V_V5         4.474E-08
    X_U1A.vb    -1.271E-12
    X_U1A.vc     8.500E-12
    X_U1A.ve     1.044E-11
    X_U1A.vlim   4.523E-08
    X_U1A.vlp   -4.000E-11
    X_U1A.vln   -4.000E-11
    X_U1B.vb    -5.168E-11
    X_U1B.vc     8.474E-12
    X_U1B.ve     1.046E-11
    X_U1B.vlim   2.347E-06
    X_U1B.vlp   -4.000E-11
    X_U1B.vln   -4.001E-11
    X_U1C.vb     5.111E-11
    X_U1C.vc     8.527E-12
    X_U1C.ve     1.041E-11
    X_U1C.vlim  -7.831E-06
    X_U1C.vlp   -4.001E-11
    X_U1C.vln   -4.000E-11

    TOTAL POWER DISSIPATION   1.33E-01  WATTS


**** 11/29/24 16:22:55 *** PSpice 23.1.0 (29 September 2023) ** ID# 0 ********

 ** Profile: "SCHEMATIC1-Sim_notch"  [ D:\GD\Sintesis de redes activas\sintesis_redes_activas\Extra_Filtro_Notch\filtro_notch-pspicef


 ****     SMALL SIGNAL BIAS SOLUTION       TEMPERATURE =   27.000 DEG C

                      MONTE CARLO PASS 16

******************************************************************************



 NODE   VOLTAGE     NODE   VOLTAGE     NODE   VOLTAGE     NODE   VOLTAGE


(   IN)    0.0000  (  OUT)    -.0330  (OUTPA)     .0303  (OUTPB) 672.8E-06      

(N04642)   10.0000 (N04654)  -10.0000 (N04884) 409.1E-06 (N05073) 865.6E-06     

(N06112)   10.0000 (N06142)     .0303 (N06276)     .0305 (N06444)  -10.0000     

(N07525)-192.2E-06 (X_U1A.6)-127.6E-09                   (X_U1A.7) 674.6E-06    

(X_U1A.8) 674.6E-06                   (X_U1A.9)    0.0000                       

(X_U1A.a)   10.0000                   (X_U1A.b)-1.037E-06                       

(X_U1B.6)-5.752E-06                   (X_U1B.7)     .0304                       

(X_U1B.8)     .0304                   (X_U1B.9)    0.0000                       

(X_U1B.a)   10.0000                   (X_U1B.b)-4.121E-06                       

(X_U1C.6) 6.365E-06                   (X_U1C.7)    -.0335                       

(X_U1C.8)    -.0335                   (X_U1C.9)    0.0000                       

(X_U1C.a) 10.90E-06                   (X_U1C.b)  -10.0000                       

(X_U1A.10)     .6084                  (X_U1A.11)   -9.9602                      

(X_U1A.12)   -9.9604                  (X_U1A.13)     .5945                      

(X_U1A.14)     .5946                  (X_U1A.53)    8.5000                      

(X_U1A.54)   -9.1780                  (X_U1A.90) 37.05E-06                      

(X_U1A.91)   40.0000                  (X_U1A.92)  -40.0000                      

(X_U1A.99)    0.0000                  (X_U1B.10)     .6380                      

(X_U1B.11)   -9.9602                  (X_U1B.12)   -9.9604                      

(X_U1B.13)     .6241                  (X_U1B.14)     .6242                      

(X_U1B.53)    8.5000                  (X_U1B.54)   -9.1780                      

(X_U1B.90)     .0031                  (X_U1B.91)   40.0000                      

(X_U1B.92)  -40.0000                  (X_U1B.99)    0.0000                      

(X_U1C.10)     .6076                  (X_U1C.11)   -9.9602                      

(X_U1C.12)   -9.9604                  (X_U1C.13)     .5937                      

(X_U1C.14)     .5937                  (X_U1C.53)    8.5000                      

(X_U1C.54)   -9.1780                  (X_U1C.90)    -.0099                      

(X_U1C.91)   40.0000                  (X_U1C.92)  -40.0000                      

(X_U1C.99)    0.0000                  




    VOLTAGE SOURCE CURRENTS
    NAME         CURRENT

    V_V1        -4.437E-03
    V_V2        -4.446E-03
    V_V4        -2.221E-03
    V_V6        -2.218E-03
    V_V5         4.474E-08
    X_U1A.vb    -1.276E-12
    X_U1A.vc     8.500E-12
    X_U1A.ve     1.044E-11
    X_U1A.vlim   3.705E-08
    X_U1A.vlp   -4.000E-11
    X_U1A.vln   -4.000E-11
    X_U1B.vb    -5.752E-11
    X_U1B.vc     8.471E-12
    X_U1B.ve     1.047E-11
    X_U1B.vlim   3.121E-06
    X_U1B.vlp   -4.000E-11
    X_U1B.vln   -4.001E-11
    X_U1C.vb     6.365E-11
    X_U1C.vc     8.534E-12
    X_U1C.ve     1.040E-11
    X_U1C.vlim  -9.896E-06
    X_U1C.vlp   -4.001E-11
    X_U1C.vln   -3.999E-11

    TOTAL POWER DISSIPATION   1.33E-01  WATTS


**** 11/29/24 16:22:55 *** PSpice 23.1.0 (29 September 2023) ** ID# 0 ********

 ** Profile: "SCHEMATIC1-Sim_notch"  [ D:\GD\Sintesis de redes activas\sintesis_redes_activas\Extra_Filtro_Notch\filtro_notch-pspicef


 ****     SMALL SIGNAL BIAS SOLUTION       TEMPERATURE =   27.000 DEG C

                      MONTE CARLO PASS 17

******************************************************************************



 NODE   VOLTAGE     NODE   VOLTAGE     NODE   VOLTAGE     NODE   VOLTAGE


(   IN)    0.0000  (  OUT)    -.0334  (OUTPA)     .0323  (OUTPB) 640.4E-06      

(N04642)   10.0000 (N04654)  -10.0000 (N04884) 460.0E-06 (N05073) 833.2E-06     

(N06112)   10.0000 (N06142)     .0323 (N06276)     .0325 (N06444)  -10.0000     

(N07525)-192.2E-06 (X_U1A.6)-121.6E-09                   (X_U1A.7) 642.6E-06    

(X_U1A.8) 642.6E-06                   (X_U1A.9)    0.0000                       

(X_U1A.a)   10.0000                   (X_U1A.b)-1.044E-06                       

(X_U1B.6)-6.140E-06                   (X_U1B.7)     .0325                       

(X_U1B.8)     .0325                   (X_U1B.9)    0.0000                       

(X_U1B.a)   10.0000                   (X_U1B.b)-4.718E-06                       

(X_U1C.6) 6.444E-06                   (X_U1C.7)    -.0339                       

(X_U1C.8)    -.0339                   (X_U1C.9)    0.0000                       

(X_U1C.a) 11.57E-06                   (X_U1C.b)  -10.0000                       

(X_U1A.10)     .6084                  (X_U1A.11)   -9.9602                      

(X_U1A.12)   -9.9604                  (X_U1A.13)     .5945                      

(X_U1A.14)     .5946                  (X_U1A.53)    8.5000                      

(X_U1A.54)   -9.1780                  (X_U1A.90) 44.23E-06                      

(X_U1A.91)   40.0000                  (X_U1A.92)  -40.0000                      

(X_U1A.99)    0.0000                  (X_U1B.10)     .6401                      

(X_U1B.11)   -9.9602                  (X_U1B.12)   -9.9604                      

(X_U1B.13)     .6261                  (X_U1B.14)     .6262                      

(X_U1B.53)    8.5000                  (X_U1B.54)   -9.1780                      

(X_U1B.90)     .0037                  (X_U1B.91)   40.0000                      

(X_U1B.92)  -40.0000                  (X_U1B.99)    0.0000                      

(X_U1C.10)     .6076                  (X_U1C.11)   -9.9602                      

(X_U1C.12)   -9.9604                  (X_U1C.13)     .5937                      

(X_U1C.14)     .5937                  (X_U1C.53)    8.5000                      

(X_U1C.54)   -9.1780                  (X_U1C.90)    -.0106                      

(X_U1C.91)   40.0000                  (X_U1C.92)  -40.0000                      

(X_U1C.99)    0.0000                  




    VOLTAGE SOURCE CURRENTS
    NAME         CURRENT

    V_V1        -4.437E-03
    V_V2        -4.447E-03
    V_V4        -2.222E-03
    V_V6        -2.218E-03
    V_V5         4.474E-08
    X_U1A.vb    -1.216E-12
    X_U1A.vc     8.500E-12
    X_U1A.ve     1.044E-11
    X_U1A.vlim   4.423E-08
    X_U1A.vlp   -4.000E-11
    X_U1A.vln   -4.000E-11
    X_U1B.vb    -6.140E-11
    X_U1B.vc     8.469E-12
    X_U1B.ve     1.047E-11
    X_U1B.vlim   3.718E-06
    X_U1B.vlp   -4.000E-11
    X_U1B.vln   -4.001E-11
    X_U1C.vb     6.444E-11
    X_U1C.vc     8.534E-12
    X_U1C.ve     1.040E-11
    X_U1C.vlim  -1.057E-05
    X_U1C.vlp   -4.001E-11
    X_U1C.vln   -3.999E-11

    TOTAL POWER DISSIPATION   1.33E-01  WATTS


**** 11/29/24 16:22:55 *** PSpice 23.1.0 (29 September 2023) ** ID# 0 ********

 ** Profile: "SCHEMATIC1-Sim_notch"  [ D:\GD\Sintesis de redes activas\sintesis_redes_activas\Extra_Filtro_Notch\filtro_notch-pspicef


 ****     SMALL SIGNAL BIAS SOLUTION       TEMPERATURE =   27.000 DEG C

                      MONTE CARLO PASS 18

******************************************************************************



 NODE   VOLTAGE     NODE   VOLTAGE     NODE   VOLTAGE     NODE   VOLTAGE


(   IN)    0.0000  (  OUT)    -.0303  (OUTPA)     .0299  (OUTPB) 716.5E-06      

(N04642)   10.0000 (N04654)  -10.0000 (N04884) 452.9E-06 (N05073) 909.3E-06     

(N06112)   10.0000 (N06142)     .0299 (N06276)     .0301 (N06444)  -10.0000     

(N07525)-192.2E-06 (X_U1A.6)-135.8E-09                   (X_U1A.7) 717.8E-06    

(X_U1A.8) 717.8E-06                   (X_U1A.9)    0.0000                       

(X_U1A.a)   10.0000                   (X_U1A.b)-1.026E-06                       

(X_U1B.6)-5.686E-06                   (X_U1B.7)     .0301                       

(X_U1B.8)     .0301                   (X_U1B.9)    0.0000                       

(X_U1B.a)   10.0000                   (X_U1B.b)-3.854E-06                       

(X_U1C.6) 5.832E-06                   (X_U1C.7)    -.0307                       

(X_U1C.8)    -.0307                   (X_U1C.9)    0.0000                       

(X_U1C.a) 10.07E-06                   (X_U1C.b)  -10.0000                       

(X_U1A.10)     .6085                  (X_U1A.11)   -9.9602                      

(X_U1A.12)   -9.9604                  (X_U1A.13)     .5946                      

(X_U1A.14)     .5946                  (X_U1A.53)    8.5000                      

(X_U1A.54)   -9.1780                  (X_U1A.90) 26.26E-06                      

(X_U1A.91)   40.0000                  (X_U1A.92)  -40.0000                      

(X_U1A.99)    0.0000                  (X_U1B.10)     .6377                      

(X_U1B.11)   -9.9602                  (X_U1B.12)   -9.9604                      

(X_U1B.13)     .6238                  (X_U1B.14)     .6239                      

(X_U1B.53)    8.5000                  (X_U1B.54)   -9.1780                      

(X_U1B.90)     .0029                  (X_U1B.91)   40.0000                      

(X_U1B.92)  -40.0000                  (X_U1B.99)    0.0000                      

(X_U1C.10)     .6076                  (X_U1C.11)   -9.9602                      

(X_U1C.12)   -9.9604                  (X_U1C.13)     .5937                      

(X_U1C.14)     .5937                  (X_U1C.53)    8.5000                      

(X_U1C.54)   -9.1780                  (X_U1C.90)    -.0091                      

(X_U1C.91)   40.0000                  (X_U1C.92)  -40.0000                      

(X_U1C.99)    0.0000                  




    VOLTAGE SOURCE CURRENTS
    NAME         CURRENT

    V_V1        -4.437E-03
    V_V2        -4.445E-03
    V_V4        -2.221E-03
    V_V6        -2.218E-03
    V_V5         4.474E-08
    X_U1A.vb    -1.358E-12
    X_U1A.vc     8.500E-12
    X_U1A.ve     1.044E-11
    X_U1A.vlim   2.626E-08
    X_U1A.vlp   -4.000E-11
    X_U1A.vln   -4.000E-11
    X_U1B.vb    -5.686E-11
    X_U1B.vc     8.471E-12
    X_U1B.ve     1.046E-11
    X_U1B.vlim   2.854E-06
    X_U1B.vlp   -4.000E-11
    X_U1B.vln   -4.001E-11
    X_U1C.vb     5.832E-11
    X_U1C.vc     8.531E-12
    X_U1C.ve     1.040E-11
    X_U1C.vlim  -9.065E-06
    X_U1C.vlp   -4.001E-11
    X_U1C.vln   -3.999E-11

    TOTAL POWER DISSIPATION   1.33E-01  WATTS


**** 11/29/24 16:22:55 *** PSpice 23.1.0 (29 September 2023) ** ID# 0 ********

 ** Profile: "SCHEMATIC1-Sim_notch"  [ D:\GD\Sintesis de redes activas\sintesis_redes_activas\Extra_Filtro_Notch\filtro_notch-pspicef


 ****     SMALL SIGNAL BIAS SOLUTION       TEMPERATURE =   27.000 DEG C

                      MONTE CARLO PASS 19

******************************************************************************



 NODE   VOLTAGE     NODE   VOLTAGE     NODE   VOLTAGE     NODE   VOLTAGE


(   IN)    0.0000  (  OUT)    -.0286  (OUTPA)     .0266  (OUTPB) 640.4E-06      

(N04642)   10.0000 (N04654)  -10.0000 (N04884) 460.0E-06 (N05073) 833.2E-06     

(N06112)   10.0000 (N06142)     .0266 (N06276)     .0268 (N06444)  -10.0000     

(N07525)-192.2E-06 (X_U1A.6)-121.3E-09                   (X_U1A.7) 641.6E-06    

(X_U1A.8) 641.6E-06                   (X_U1A.9)    0.0000                       

(X_U1A.a)   10.0000                   (X_U1A.b)-1.024E-06                       

(X_U1B.6)-5.063E-06                   (X_U1B.7)     .0268                       

(X_U1B.8)     .0268                   (X_U1B.9)    0.0000                       

(X_U1B.a)   10.0000                   (X_U1B.b)-4.179E-06                       

(X_U1C.6) 5.526E-06                   (X_U1C.7)    -.0291                       

(X_U1C.8)    -.0291                   (X_U1C.9)    0.0000                       

(X_U1C.a) 10.06E-06                   (X_U1C.b)  -10.0000                       

(X_U1A.10)     .6084                  (X_U1A.11)   -9.9602                      

(X_U1A.12)   -9.9604                  (X_U1A.13)     .5945                      

(X_U1A.14)     .5946                  (X_U1A.53)    8.5000                      

(X_U1A.54)   -9.1780                  (X_U1A.90) 24.28E-06                      

(X_U1A.91)   40.0000                  (X_U1A.92)  -40.0000                      

(X_U1A.99)    0.0000                  (X_U1B.10)     .6344                      

(X_U1B.11)   -9.9602                  (X_U1B.12)   -9.9604                      

(X_U1B.13)     .6205                  (X_U1B.14)     .6205                      

(X_U1B.53)    8.5000                  (X_U1B.54)   -9.1780                      

(X_U1B.90)     .0032                  (X_U1B.91)   40.0000                      

(X_U1B.92)  -40.0000                  (X_U1B.99)    0.0000                      

(X_U1C.10)     .6076                  (X_U1C.11)   -9.9602                      

(X_U1C.12)   -9.9604                  (X_U1C.13)     .5937                      

(X_U1C.14)     .5937                  (X_U1C.53)    8.5000                      

(X_U1C.54)   -9.1780                  (X_U1C.90)    -.0091                      

(X_U1C.91)   40.0000                  (X_U1C.92)  -40.0000                      

(X_U1C.99)    0.0000                  




    VOLTAGE SOURCE CURRENTS
    NAME         CURRENT

    V_V1        -4.437E-03
    V_V2        -4.445E-03
    V_V4        -2.221E-03
    V_V6        -2.218E-03
    V_V5         4.474E-08
    X_U1A.vb    -1.213E-12
    X_U1A.vc     8.500E-12
    X_U1A.ve     1.044E-11
    X_U1A.vlim   2.428E-08
    X_U1A.vlp   -4.000E-11
    X_U1A.vln   -4.000E-11
    X_U1B.vb    -5.063E-11
    X_U1B.vc     8.474E-12
    X_U1B.ve     1.046E-11
    X_U1B.vlim   3.179E-06
    X_U1B.vlp   -4.000E-11
    X_U1B.vln   -4.001E-11
    X_U1C.vb     5.526E-11
    X_U1C.vc     8.529E-12
    X_U1C.ve     1.041E-11
    X_U1C.vlim  -9.064E-06
    X_U1C.vlp   -4.001E-11
    X_U1C.vln   -3.999E-11

    TOTAL POWER DISSIPATION   1.33E-01  WATTS


**** 11/29/24 16:22:55 *** PSpice 23.1.0 (29 September 2023) ** ID# 0 ********

 ** Profile: "SCHEMATIC1-Sim_notch"  [ D:\GD\Sintesis de redes activas\sintesis_redes_activas\Extra_Filtro_Notch\filtro_notch-pspicef


 ****     SMALL SIGNAL BIAS SOLUTION       TEMPERATURE =   27.000 DEG C

                      MONTE CARLO PASS 20

******************************************************************************



 NODE   VOLTAGE     NODE   VOLTAGE     NODE   VOLTAGE     NODE   VOLTAGE


(   IN)    0.0000  (  OUT)    -.0304  (OUTPA)     .0299  (OUTPB) 756.9E-06      

(N04642)   10.0000 (N04654)  -10.0000 (N04884) 443.5E-06 (N05073) 949.8E-06     

(N06112)   10.0000 (N06142)     .0299 (N06276)     .0301 (N06444)  -10.0000     

(N07525)-192.2E-06 (X_U1A.6)-143.5E-09                   (X_U1A.7) 759.0E-06    

(X_U1A.8) 759.0E-06                   (X_U1A.9)    0.0000                       

(X_U1A.a)   10.0000                   (X_U1A.b)-1.040E-06                       

(X_U1B.6)-5.686E-06                   (X_U1B.7)     .0301                       

(X_U1B.8)     .0301                   (X_U1B.9)    0.0000                       

(X_U1B.a)   10.0000                   (X_U1B.b)-3.854E-06                       

(X_U1C.6) 5.859E-06                   (X_U1C.7)    -.0308                       

(X_U1C.8)    -.0308                   (X_U1C.9)    0.0000                       

(X_U1C.a) 10.11E-06                   (X_U1C.b)  -10.0000                       

(X_U1A.10)     .6085                  (X_U1A.11)   -9.9602                      

(X_U1A.12)   -9.9604                  (X_U1A.13)     .5946                      

(X_U1A.14)     .5947                  (X_U1A.53)    8.5000                      

(X_U1A.54)   -9.1780                  (X_U1A.90) 40.33E-06                      

(X_U1A.91)   40.0000                  (X_U1A.92)  -40.0000                      

(X_U1A.99)    0.0000                  (X_U1B.10)     .6377                      

(X_U1B.11)   -9.9602                  (X_U1B.12)   -9.9604                      

(X_U1B.13)     .6238                  (X_U1B.14)     .6239                      

(X_U1B.53)    8.5000                  (X_U1B.54)   -9.1780                      

(X_U1B.90)     .0029                  (X_U1B.91)   40.0000                      

(X_U1B.92)  -40.0000                  (X_U1B.99)    0.0000                      

(X_U1C.10)     .6076                  (X_U1C.11)   -9.9602                      

(X_U1C.12)   -9.9604                  (X_U1C.13)     .5937                      

(X_U1C.14)     .5937                  (X_U1C.53)    8.5000                      

(X_U1C.54)   -9.1780                  (X_U1C.90)    -.0091                      

(X_U1C.91)   40.0000                  (X_U1C.92)  -40.0000                      

(X_U1C.99)    0.0000                  




    VOLTAGE SOURCE CURRENTS
    NAME         CURRENT

    V_V1        -4.437E-03
    V_V2        -4.445E-03
    V_V4        -2.221E-03
    V_V6        -2.218E-03
    V_V5         4.474E-08
    X_U1A.vb    -1.435E-12
    X_U1A.vc     8.500E-12
    X_U1A.ve     1.044E-11
    X_U1A.vlim   4.033E-08
    X_U1A.vlp   -4.000E-11
    X_U1A.vln   -4.000E-11
    X_U1B.vb    -5.686E-11
    X_U1B.vc     8.471E-12
    X_U1B.ve     1.046E-11
    X_U1B.vlim   2.854E-06
    X_U1B.vlp   -4.000E-11
    X_U1B.vln   -4.001E-11
    X_U1C.vb     5.859E-11
    X_U1C.vc     8.531E-12
    X_U1C.ve     1.040E-11
    X_U1C.vlim  -9.107E-06
    X_U1C.vlp   -4.001E-11
    X_U1C.vln   -3.999E-11

    TOTAL POWER DISSIPATION   1.33E-01  WATTS


**** 11/29/24 16:22:55 *** PSpice 23.1.0 (29 September 2023) ** ID# 0 ********

 ** Profile: "SCHEMATIC1-Sim_notch"  [ D:\GD\Sintesis de redes activas\sintesis_redes_activas\Extra_Filtro_Notch\filtro_notch-pspicef


 ****     SMALL SIGNAL BIAS SOLUTION       TEMPERATURE =   27.000 DEG C

                      MONTE CARLO PASS 21

******************************************************************************



 NODE   VOLTAGE     NODE   VOLTAGE     NODE   VOLTAGE     NODE   VOLTAGE


(   IN)    0.0000  (  OUT)    -.0287  (OUTPA)     .0266  (OUTPB) 598.4E-06      

(N04642)   10.0000 (N04654)  -10.0000 (N04884) 410.7E-06 (N05073) 791.2E-06     

(N06112)   10.0000 (N06142)     .0266 (N06276)     .0268 (N06444)  -10.0000     

(N07525)-192.2E-06 (X_U1A.6)-113.5E-09                   (X_U1A.7) 599.9E-06    

(X_U1A.8) 599.9E-06                   (X_U1A.9)    0.0000                       

(X_U1A.a)   10.0000                   (X_U1A.b)-1.031E-06                       

(X_U1B.6)-5.063E-06                   (X_U1B.7)     .0268                       

(X_U1B.8)     .0268                   (X_U1B.9)    0.0000                       

(X_U1B.a)   10.0000                   (X_U1B.b)-4.179E-06                       

(X_U1C.6) 5.537E-06                   (X_U1C.7)    -.0291                       

[...]

(X_U1B.a)   10.0000                   (X_U1B.b)-4.008E-06                       

(X_U1C.6) 6.481E-06                   (X_U1C.7)    -.0341                       

(X_U1C.8)    -.0341                   (X_U1C.9)    0.0000                       

(X_U1C.a) 10.90E-06                   (X_U1C.b)  -10.0000                       

(X_U1A.10)     .6085                  (X_U1A.11)   -9.9602                      

(X_U1A.12)   -9.9604                  (X_U1A.13)     .5946                      

(X_U1A.14)     .5947                  (X_U1A.53)    8.5000                      

(X_U1A.54)   -9.1780                  (X_U1A.90) 34.31E-06                      

(X_U1A.91)   40.0000                  (X_U1A.92)  -40.0000                      

(X_U1A.99)    0.0000                  (X_U1B.10)     .6351                      

(X_U1B.11)   -9.9602                  (X_U1B.12)   -9.9604                      

(X_U1B.13)     .6212                  (X_U1B.14)     .6213                      

(X_U1B.53)    8.5000                  (X_U1B.54)   -9.1780                      

(X_U1B.90)     .0030                  (X_U1B.91)   40.0000                      

(X_U1B.92)  -40.0000                  (X_U1B.99)    0.0000                      

(X_U1C.10)     .6076                  (X_U1C.11)   -9.9602                      

(X_U1C.12)   -9.9604                  (X_U1C.13)     .5937                      

(X_U1C.14)     .5937                  (X_U1C.53)    8.5000                      

(X_U1C.54)   -9.1780                  (X_U1C.90)    -.0099                      

(X_U1C.91)   40.0000                  (X_U1C.92)  -40.0000                      

(X_U1C.99)    0.0000                  




    VOLTAGE SOURCE CURRENTS
    NAME         CURRENT

    V_V1        -4.437E-03
    V_V2        -4.446E-03
    V_V4        -2.221E-03
    V_V6        -2.218E-03
    V_V5         4.474E-08
    X_U1A.vb    -1.395E-12
    X_U1A.vc     8.500E-12
    X_U1A.ve     1.044E-11
    X_U1A.vlim   3.431E-08
    X_U1A.vlp   -4.000E-11
    X_U1A.vln   -4.000E-11
    X_U1B.vb    -5.199E-11
    X_U1B.vc     8.473E-12
    X_U1B.ve     1.046E-11
    X_U1B.vlim   3.008E-06
    X_U1B.vlp   -4.000E-11
    X_U1B.vln   -4.001E-11
    X_U1C.vb     6.481E-11
    X_U1C.vc     8.534E-12
    X_U1C.ve     1.040E-11
    X_U1C.vlim  -9.903E-06
    X_U1C.vlp   -4.001E-11
    X_U1C.vln   -3.999E-11

    TOTAL POWER DISSIPATION   1.33E-01  WATTS


**** 11/29/24 16:22:55 *** PSpice 23.1.0 (29 September 2023) ** ID# 0 ********

 ** Profile: "SCHEMATIC1-Sim_notch"  [ D:\GD\Sintesis de redes activas\sintesis_redes_activas\Extra_Filtro_Notch\filtro_notch-pspicef


 ****     SMALL SIGNAL BIAS SOLUTION       TEMPERATURE =   27.000 DEG C

                      MONTE CARLO PASS 48

******************************************************************************



 NODE   VOLTAGE     NODE   VOLTAGE     NODE   VOLTAGE     NODE   VOLTAGE


(   IN)    0.0000  (  OUT)    -.0298  (OUTPA)     .0296  (OUTPB) 619.4E-06      

(N04642)   10.0000 (N04654)  -10.0000 (N04884) 441.1E-06 (N05073) 812.2E-06     

(N06112)   10.0000 (N06142)     .0296 (N06276)     .0298 (N06444)  -10.0000     

(N07525)-192.2E-06 (X_U1A.6)-117.5E-09                   (X_U1A.7) 621.1E-06    

(X_U1A.8) 621.1E-06                   (X_U1A.9)    0.0000                       

(X_U1A.a)   10.0000                   (X_U1A.b)-1.035E-06                       

(X_U1B.6)-5.622E-06                   (X_U1B.7)     .0298                       

(X_U1B.8)     .0298                   (X_U1B.9)    0.0000                       

(X_U1B.a)   10.0000                   (X_U1B.b)-3.667E-06                       

(X_U1C.6) 5.734E-06                   (X_U1C.7)    -.0302                       

(X_U1C.8)    -.0302                   (X_U1C.9)    0.0000                       

(X_U1C.a) 9.787E-06                   (X_U1C.b)  -10.0000                       

(X_U1A.10)     .6084                  (X_U1A.11)   -9.9602                      

(X_U1A.12)   -9.9604                  (X_U1A.13)     .5945                      

(X_U1A.14)     .5945                  (X_U1A.53)    8.5000                      

(X_U1A.54)   -9.1780                  (X_U1A.90) 34.68E-06                      

(X_U1A.91)   40.0000                  (X_U1A.92)  -40.0000                      

(X_U1A.99)    0.0000                  (X_U1B.10)     .6374                      

(X_U1B.11)   -9.9602                  (X_U1B.12)   -9.9604                      

(X_U1B.13)     .6235                  (X_U1B.14)     .6235                      

(X_U1B.53)    8.5000                  (X_U1B.54)   -9.1780                      

(X_U1B.90)     .0027                  (X_U1B.91)   40.0000                      

(X_U1B.92)  -40.0000                  (X_U1B.99)    0.0000                      

(X_U1C.10)     .6076                  (X_U1C.11)   -9.9602                      

(X_U1C.12)   -9.9604                  (X_U1C.13)     .5937                      

(X_U1C.14)     .5937                  (X_U1C.53)    8.5000                      

(X_U1C.54)   -9.1780                  (X_U1C.90)    -.0088                      

(X_U1C.91)   40.0000                  (X_U1C.92)  -40.0000                      

(X_U1C.99)    0.0000                  




    VOLTAGE SOURCE CURRENTS
    NAME         CURRENT

    V_V1        -4.437E-03
    V_V2        -4.445E-03
    V_V4        -2.221E-03
    V_V6        -2.218E-03
    V_V5         4.474E-08
    X_U1A.vb    -1.175E-12
    X_U1A.vc     8.500E-12
    X_U1A.ve     1.044E-11
    X_U1A.vlim   3.468E-08
    X_U1A.vlp   -4.000E-11
    X_U1A.vln   -4.000E-11
    X_U1B.vb    -5.622E-11
    X_U1B.vc     8.471E-12
    X_U1B.ve     1.046E-11
    X_U1B.vlim   2.667E-06
    X_U1B.vlp   -4.000E-11
    X_U1B.vln   -4.001E-11
    X_U1C.vb     5.734E-11
    X_U1C.vc     8.531E-12
    X_U1C.ve     1.041E-11
    X_U1C.vlim  -8.787E-06
    X_U1C.vlp   -4.001E-11
    X_U1C.vln   -3.999E-11

    TOTAL POWER DISSIPATION   1.33E-01  WATTS


**** 11/29/24 16:22:55 *** PSpice 23.1.0 (29 September 2023) ** ID# 0 ********

 ** Profile: "SCHEMATIC1-Sim_notch"  [ D:\GD\Sintesis de redes activas\sintesis_redes_activas\Extra_Filtro_Notch\filtro_notch-pspicef


 ****     SMALL SIGNAL BIAS SOLUTION       TEMPERATURE =   27.000 DEG C

                      MONTE CARLO PASS 49

******************************************************************************



 NODE   VOLTAGE     NODE   VOLTAGE     NODE   VOLTAGE     NODE   VOLTAGE


(   IN)    0.0000  (  OUT)    -.0229  (OUTPA)     .0274  (OUTPB) 705.4E-06      

(N04642)   10.0000 (N04654)  -10.0000 (N04884) 490.5E-06 (N05073) 898.2E-06     

(N06112)   10.0000 (N06142)     .0274 (N06276)     .0276 (N06444)  -10.0000     

(N07525)-192.3E-06 (X_U1A.6)-133.7E-09                   (X_U1A.7) 707.0E-06    

(X_U1A.8) 707.0E-06                   (X_U1A.9)    0.0000                       

(X_U1A.a)   10.0000                   (X_U1A.b)-1.032E-06                       

(X_U1B.6)-5.190E-06                   (X_U1B.7)     .0275                       

(X_U1B.8)     .0275                   (X_U1B.9)    0.0000                       

(X_U1B.a)   10.0000                   (X_U1B.b)-3.392E-06                       

(X_U1C.6) 4.425E-06                   (X_U1C.7)    -.0233                       

(X_U1C.8)    -.0233                   (X_U1C.9)    0.0000                       

(X_U1C.a) 8.145E-06                   (X_U1C.b)  -10.0000                       

(X_U1A.10)     .6085                  (X_U1A.11)   -9.9602                      

(X_U1A.12)   -9.9604                  (X_U1A.13)     .5946                      

(X_U1A.14)     .5946                  (X_U1A.53)    8.5000                      

(X_U1A.54)   -9.1780                  (X_U1A.90) 31.70E-06                      

(X_U1A.91)   40.0000                  (X_U1A.92)  -40.0000                      

(X_U1A.99)    0.0000                  (X_U1B.10)     .6351                      

(X_U1B.11)   -9.9602                  (X_U1B.12)   -9.9604                      

(X_U1B.13)     .6212                  (X_U1B.14)     .6213                      

(X_U1B.53)    8.5000                  (X_U1B.54)   -9.1780                      

(X_U1B.90)     .0024                  (X_U1B.91)   40.0000                      

(X_U1B.92)  -40.0000                  (X_U1B.99)    0.0000                      

(X_U1C.10)     .6076                  (X_U1C.11)   -9.9602                      

(X_U1C.12)   -9.9604                  (X_U1C.13)     .5937                      

(X_U1C.14)     .5937                  (X_U1C.53)    8.5000                      

(X_U1C.54)   -9.1780                  (X_U1C.90)    -.0071                      

(X_U1C.91)   40.0000                  (X_U1C.92)  -40.0000                      

(X_U1C.99)    0.0000                  




    VOLTAGE SOURCE CURRENTS
    NAME         CURRENT

    V_V1        -4.437E-03
    V_V2        -4.443E-03
    V_V4        -2.221E-03
    V_V6        -2.218E-03
    V_V5         4.474E-08
    X_U1A.vb    -1.337E-12
    X_U1A.vc     8.500E-12
    X_U1A.ve     1.044E-11
    X_U1A.vlim   3.170E-08
    X_U1A.vlp   -4.000E-11
    X_U1A.vln   -4.000E-11
    X_U1B.vb    -5.190E-11
    X_U1B.vc     8.473E-12
    X_U1B.ve     1.046E-11
    X_U1B.vlim   2.392E-06
    X_U1B.vlp   -4.000E-11
    X_U1B.vln   -4.001E-11
    X_U1C.vb     4.425E-11
    X_U1C.vc     8.524E-12
    X_U1C.ve     1.041E-11
    X_U1C.vlim  -7.145E-06
    X_U1C.vlp   -4.001E-11
    X_U1C.vln   -4.000E-11

    TOTAL POWER DISSIPATION   1.33E-01  WATTS


**** 11/29/24 16:22:55 *** PSpice 23.1.0 (29 September 2023) ** ID# 0 ********

 ** Profile: "SCHEMATIC1-Sim_notch"  [ D:\GD\Sintesis de redes activas\sintesis_redes_activas\Extra_Filtro_Notch\filtro_notch-pspicef


 ****     SMALL SIGNAL BIAS SOLUTION       TEMPERATURE =   27.000 DEG C

                      MONTE CARLO PASS 50

******************************************************************************



 NODE   VOLTAGE     NODE   VOLTAGE     NODE   VOLTAGE     NODE   VOLTAGE


(   IN)    0.0000  (  OUT)    -.0267  (OUTPA)     .0301  (OUTPB) 670.1E-06      

(N04642)   10.0000 (N04654)  -10.0000 (N04884) 403.2E-06 (N05073) 862.9E-06     

(N06112)   10.0000 (N06142)     .0301 (N06276)     .0303 (N06444)  -10.0000     

(N07525)-192.2E-06 (X_U1A.6)-127.2E-09                   (X_U1A.7) 672.4E-06    

(X_U1A.8) 672.4E-06                   (X_U1A.9)    0.0000                       

(X_U1A.a)   10.0000                   (X_U1A.b)-1.046E-06                       

(X_U1B.6)-5.720E-06                   (X_U1B.7)     .0303                       

(X_U1B.8)     .0303                   (X_U1B.9)    0.0000                       

(X_U1B.a)   10.0000                   (X_U1B.b)-3.733E-06                       

(X_U1C.6) 5.157E-06                   (X_U1C.7)    -.0271                       

(X_U1C.8)    -.0271                   (X_U1C.9)    0.0000                       

(X_U1C.a) 9.259E-06                   (X_U1C.b)  -10.0000                       

(X_U1A.10)     .6084                  (X_U1A.11)   -9.9602                      

(X_U1A.12)   -9.9604                  (X_U1A.13)     .5945                      

(X_U1A.14)     .5946                  (X_U1A.53)    8.5000                      

(X_U1A.54)   -9.1780                  (X_U1A.90) 45.54E-06                      

(X_U1A.91)   40.0000                  (X_U1A.92)  -40.0000                      

(X_U1A.99)    0.0000                  (X_U1B.10)     .6379                      

(X_U1B.11)   -9.9602                  (X_U1B.12)   -9.9604                      

(X_U1B.13)     .6240                  (X_U1B.14)     .6241                      

(X_U1B.53)    8.5000                  (X_U1B.54)   -9.1780                      

(X_U1B.90)     .0027                  (X_U1B.91)   40.0000                      

(X_U1B.92)  -40.0000                  (X_U1B.99)    0.0000                      

(X_U1C.10)     .6076                  (X_U1C.11)   -9.9602                      

(X_U1C.12)   -9.9604                  (X_U1C.13)     .5937                      

(X_U1C.14)     .5937                  (X_U1C.53)    8.5000                      

(X_U1C.54)   -9.1780                  (X_U1C.90)    -.0083                      

(X_U1C.91)   40.0000                  (X_U1C.92)  -40.0000                      

(X_U1C.99)    0.0000                  




    VOLTAGE SOURCE CURRENTS
    NAME         CURRENT

    V_V1        -4.437E-03
    V_V2        -4.444E-03
    V_V4        -2.221E-03
    V_V6        -2.218E-03
    V_V5         4.474E-08
    X_U1A.vb    -1.272E-12
    X_U1A.vc     8.500E-12
    X_U1A.ve     1.044E-11
    X_U1A.vlim   4.554E-08
    X_U1A.vlp   -4.000E-11
    X_U1A.vln   -4.000E-11
    X_U1B.vb    -5.720E-11
    X_U1B.vc     8.471E-12
    X_U1B.ve     1.047E-11
    X_U1B.vlim   2.733E-06
    X_U1B.vlp   -4.000E-11
    X_U1B.vln   -4.001E-11
    X_U1C.vb     5.157E-11
    X_U1C.vc     8.528E-12
    X_U1C.ve     1.041E-11
    X_U1C.vlim  -8.259E-06
    X_U1C.vlp   -4.001E-11
    X_U1C.vln   -4.000E-11

    TOTAL POWER DISSIPATION   1.33E-01  WATTS


**** 11/29/24 16:22:55 *** PSpice 23.1.0 (29 September 2023) ** ID# 0 ********

 ** Profile: "SCHEMATIC1-Sim_notch"  [ D:\GD\Sintesis de redes activas\sintesis_redes_activas\Extra_Filtro_Notch\filtro_notch-pspicef


 ****     SORTED DEVIATIONS OF V(OUT)      TEMPERATURE =   27.000 DEG C

                      MONTE CARLO SUMMARY

******************************************************************************





Mean Deviation =    7.568 
Sigma          =    2.9019

 RUN                    MAX DEVIATION FROM NOMINAL

Pass   31               11.584  (3.99 sigma)  higher  at F =   39.811
                        (   1.2861E+03% of Nominal)

Pass   11               11.582  (3.99 sigma)  higher  at F =   52.481
                        (   1.8247E+03% of Nominal)

Pass   28               11.481  (3.96 sigma)  higher  at F =   48.978
                        (   3.1050E+03% of Nominal)

Pass   35               11.099  (3.82 sigma)  higher  at F =   52.481
                        (   1.7527E+03% of Nominal)

Pass   13               10.696  (3.69 sigma)  higher  at F =   50.119
                        (  28.1800E+03% of Nominal)

Pass   34               10.646  (3.67 sigma)  higher  at F =   50.119
                        (  28.0470E+03% of Nominal)

Pass   16               10.025  (3.45 sigma)  higher  at F =   60.256
                        (   1.1442E+03% of Nominal)

Pass   43               9.8323  (3.39 sigma)  higher  at F =   54.954
                        (   1.2299E+03% of Nominal)

Pass   24               9.6627  (3.33 sigma)  higher  at F =   50.119
                        (  25.4670E+03% of Nominal)

Pass    6               9.6338  (3.32 sigma)  higher  at F =   48.978
                        (   2.6216E+03% of Nominal)

Pass    3               9.5936  (3.31 sigma)  higher  at F =   47.863
                        (   1.5713E+03% of Nominal)

Pass   45               9.5462  (3.29 sigma)  higher  at F =   56.234
                        (   1.1495E+03% of Nominal)

Pass   48               9.541   (3.29 sigma)  higher  at F =   53.703
                        (   1.2910E+03% of Nominal)

Pass   10               9.4577  (3.26 sigma)  higher  at F =   60.256
                        (   1.0851E+03% of Nominal)

Pass   25               9.2404  (3.18 sigma)  higher  at F =   51.286
                        (   2.2701E+03% of Nominal)

Pass    7               9.1595  (3.16 sigma)  higher  at F =   50.119
                        (  24.1460E+03% of Nominal)

Pass    4               9.0364  (3.11 sigma)  higher  at F =   42.658
                        (   1.0482E+03% of Nominal)

Pass   39               8.9396  (3.08 sigma)  higher  at F =   50.119
                        (  23.5680E+03% of Nominal)

Pass   26               8.9163  (3.07 sigma)  higher  at F =   58.884
                        (   1.0391E+03% of Nominal)

Pass   17               8.8152  (3.04 sigma)  higher  at F =   45.709
                        (   1.1132E+03% of Nominal)

Pass   29               8.7737  (3.02 sigma)  higher  at F =   42.658
                        (   1.0207E+03% of Nominal)

Pass   38               8.7726  (3.02 sigma)  higher  at F =   50.119
                        (  23.1300E+03% of Nominal)

Pass   14               8.7435  (3.01 sigma)  higher  at F =   54.954
                        (   1.1048E+03% of Nominal)

Pass   12               8.7385  (3.01 sigma)  higher  at F =   56.234
                        (   1.0607E+03% of Nominal)

Pass   23               8.7081  (3.00 sigma)  higher  at F =   50.119
                        (  22.9610E+03% of Nominal)

Pass   42               8.6552  (2.98 sigma)  higher  at F =   56.234
                        (   1.0515E+03% of Nominal)

Pass   37               8.398   (2.89 sigma)  higher  at F =   51.286
                        (   2.0723E+03% of Nominal)

Pass   44               8.2907  (2.86 sigma)  higher  at F =   47.863
                        (   1.3715E+03% of Nominal)

Pass   27               8.2072  (2.83 sigma)  higher  at F =   50.119
                        (  21.6460E+03% of Nominal)

Pass   21               7.9553  (2.74 sigma)  higher  at F =   52.481
                        (   1.2846E+03% of Nominal)

Pass   22               7.9079  (2.73 sigma)  higher  at F =   47.863
                        (   1.3128E+03% of Nominal)

Pass   30               7.3251  (2.52 sigma)  higher  at F =   52.481
                        (   1.1908E+03% of Nominal)

Pass   40               7.0353  (2.42 sigma)  higher  at F =   43.652
                        ( 850.84% of Nominal)

Pass   32               7.0009  (2.41 sigma)  higher  at F =   50.119
                        (  18.4790E+03% of Nominal)

Pass   19               6.7674  (2.33 sigma)  higher  at F =   47.863
                        (   1.1379E+03% of Nominal)

Pass   49               6.7111  (2.31 sigma)  higher  at F =   47.863
                        (   1.1292E+03% of Nominal)

Pass    8               5.98    (2.06 sigma)  higher  at F =   48.978
                        (   1.6653E+03% of Nominal)

Pass   20               5.9128  (2.04 sigma)  higher  at F =   48.978
                        (   1.6477E+03% of Nominal)

Pass   41               5.6211  (1.94 sigma)  higher  at F =   48.978
                        (   1.5713E+03% of Nominal)

Pass   15               5.336   (1.84 sigma)  higher  at F =   50.119
                        (  14.1080E+03% of Nominal)

Pass   47               4.8009  (1.65 sigma)  higher  at F =   50.119
                        (  12.7030E+03% of Nominal)

Pass   18               4.0507  (1.40 sigma)  higher  at F =   44.668
                        ( 544.21% of Nominal)

Pass    9               2.7885  ( .96 sigma)  higher  at F =   45.709
                        ( 420.52% of Nominal)

Pass   33               2.5235  ( .87 sigma)  higher  at F =   51.286
                        ( 692.65% of Nominal)

Pass    5               2.4818  ( .86 sigma)  higher  at F =   54.954
                        ( 385.2 % of Nominal)

Pass   36               2.0659  ( .71 sigma)  higher  at F =   47.863
                        ( 416.83% of Nominal)

Pass    2               1.721   ( .59 sigma)  higher  at F =   50.119
                        (   4.6180E+03% of Nominal)

Pass   46               1.4513  ( .50 sigma)  higher  at F =   47.863
                        ( 322.57% of Nominal)

Pass   50                .3781  ( .13 sigma)  lower  at F =   54.954
                        (  56.548% of Nominal)



          JOB CONCLUDED

**** 11/29/24 16:22:55 *** PSpice 23.1.0 (29 September 2023) ** ID# 0 ********

 ** Profile: "SCHEMATIC1-Sim_notch"  [ D:\GD\Sintesis de redes activas\sintesis_redes_activas\Extra_Filtro_Notch\filtro_notch-pspicef


 ****     JOB STATISTICS SUMMARY


******************************************************************************



  Total job time (using Solver 1)   =         .91
