
**** 08/24/24 17:09:52 *** PSpice 23.1.0 (29 September 2023) ** ID# 0 ********

 ** Profile: "SCHEMATIC1-sim"  [ C:\FACULTAD\Materias--4to-2do\Sintesis de Redes Activas\sintesis_redes_activas\Tp1\Tp1_SRA-PSpiceFil


 ****     CIRCUIT DESCRIPTION


******************************************************************************




** Creating circuit file "sim.cir" 
** WARNING: THIS AUTOMATICALLY GENERATED FILE MAY BE OVERWRITTEN BY SUBSEQUENT SIMULATIONS

*Libraries: 
* Profile Libraries :
* Local Libraries :
* From [PSPICE NETLIST] section of C:\Users\enzog\AppData\Roaming\SPB_Data\cdssetup\OrCAD_PSpice\23.1.0\PSpice.ini file:
.lib "nom.lib" 

*Analysis directives: 
.TRAN  0 1000ns 0 
.OPTIONS ADVCONV
.PROBE64 V(alias(*)) I(alias(*)) W(alias(*)) D(alias(*)) NOISE(alias(*)) 
.INC "..\SCHEMATIC1.net" 



**** INCLUDING SCHEMATIC1.net ****
* source TP1_SRA
X_U1A         N00653 N00224 N00399 N00419 N00232 LM324
X_U1B         N01543 N00236 N00399 N00419 N00315 LM324
R_R1         N00224 N00236  1k  
R_R2         N00224 N00232  1k  
R_R3         N00236 N00315  1k  
R_R4         0 N00224  1k  
R_R5         N00232 N00236  1k  
V_V1         N00399 0 10Vdc
V_V2         0 N00419 10Vdc
R_R6         0 N00315  1meg  
V_V3         N00653 0 500mVdc
V_V4         N00681 M_UN0001 1Vdc
R_R7         N01543 0  1k  

**** RESUMING sim.cir ****
.END

ERROR(ORPSIM-15141): Less than 2 connections at node N00681.

ERROR(ORPSIM-15141): Less than 2 connections at node M_UN0001.

ERROR(ORPSIM-15142): Node N00681 is floating

ERROR(ORPSIM-15142): Node M_UN0001 is floating
