LTspice 24.0.12 for Windows
Circuit: @OrCAD Simulation Server Version: 1.0
Start Time: Sat Aug 24 17:48:56 2024
Fatal Error: @general:: Missing node(s).
