LTspice 24.0.12 for Windows
Circuit: * C:\FACULTAD\Materias--4to-2do\Sintesis de Redes Activas\sintesis_redes_activas\Tp3\LTspice_archivos\Draft1.asc
Start Time: Thu Nov 21 19:45:41 2024
Error on line 8 : d1 0 n004 2.5
	 Unable to find definition of model "2.5"
solver = Normal
Maximum thread count: 8
tnom = 27
temp = 27
method = modified trap
Direct Newton iteration failed to find .op point.  (Use ".option noopiter" to skip.)
Starting Gmin stepping
Gmin = 10
Gmin = 1.07374
Gmin = 0.115292
Gmin = 0.0123794
Gmin = 0.00132923
Gmin = 0.000142725
Gmin = 1.5325e-05
Gmin = 1.6455e-06
Gmin = 1.76685e-07
Gmin = 1.89714e-08
Gmin = 2.03704e-09
Gmin = 2.18725e-10
Gmin = 2.34854e-11
Gmin = 2.52173e-12
Gmin = 2.70769e-13
Gmin = 0
Gmin stepping succeeded in finding the operating point.

Total elapsed time: 3.353 seconds.

