
**** 11/28/24 22:08:02 *** PSpice 23.1.0 (29 September 2023) ** ID# 0 ********

 ** Profile: "SCHEMATIC1-tp4_montecarlo"  [ D:\GD\Sintesis de redes activas\sintesis_redes_activas\Tp4\tp4_montecarlo-PSpiceFiles\SCH


 ****     CIRCUIT DESCRIPTION


******************************************************************************




** Creating circuit file "tp4_montecarlo.cir" 
** WARNING: THIS AUTOMATICALLY GENERATED FILE MAY BE OVERWRITTEN BY SUBSEQUENT SIMULATIONS

*Libraries: 
* Profile Libraries :
* Local Libraries :
* From [PSPICE NETLIST] section of C:\Users\maria\AppData\Roaming\SBP_23.1\cdssetup\OrCAD_PSpice\23.1.0\PSpice.ini file:
.lib "nom.lib" 

*Analysis directives: 
.AC DEC 100 10 1meg
.WCASE AC V([OUT]) YMAX VARY BOTH  HI 
.OPTIONS ADVCONV
.PROBE64 V(alias(*)) I(alias(*)) W(alias(*)) D(alias(*)) NOISE(alias(*)) 
.INC "..\SCHEMATIC1.net" 



**** INCLUDING SCHEMATIC1.net ****
* source TP4_MONTECARLO
X_U1A         N00407 N00733 N00201 N00215 N00733 LM324
X_U1B         N01000 OUT N00201 N00215 OUT LM324
V_V1         N00201 0 10V
V_V2         0 N00215 10V
R_R1         N00800 N00407 R_R1 10k TC=0,0 
.model        R_R1 RES R=1 DEV=10% TC1=0 TC2=0
R_R2         N00415 N00800 R_R2 10k TC=0,0 
.model        R_R2 RES R=1 DEV=10% TC1=0 TC2=0
R_R3         0 N00415 R_R3 500 TC=0,0 
.model        R_R3 RES R=1 DEV=10% TC1=0 TC2=0
R_R4         N00415 IN R_R4 1500 TC=0,0 
.model        R_R4 RES R=1 DEV=10% TC1=0 TC2=0
V_V3         IN 0  AC 1
+SIN 0 100mV 1k 0 0 0
C_C1         0 N00407 C_C1 2.4n  TC=0,0 
.model        C_C1 CAP C=1 DEV=10% TC1=0 TC2=0 VC1=0 VC2=0
C_C2         N00800 N00733 C_C2 62.8n  TC=0,0 
.model        C_C2 CAP C=1 DEV=10% TC1=0 TC2=0 VC1=0 VC2=0
C_C3         N00733 N00996 C_C3 100n  TC=0,0 
.model        C_C3 CAP C=1 DEV=10% TC1=0 TC2=0 VC1=0 VC2=0
C_C4         N00996 N01000 C_C4 100n  TC=0,0 
.model        C_C4 CAP C=1 DEV=10% TC1=0 TC2=0 VC1=0 VC2=0
R_R5         0 N01000 R_R5 10550 TC=0,0 
.model        R_R5 RES R=1 DEV=10% TC1=0 TC2=0
R_R6         N00996 OUT R_R6 403 TC=0,0 
.model        R_R6 RES R=1 DEV=10% TC1=0 TC2=0
R_R7         0 OUT R_R7 1k TC=0,0 
.model        R_R7 RES R=1 DEV=0% TC1=0 TC2=0

**** RESUMING tp4_montecarlo.cir ****
.END

**** 11/28/24 22:08:02 *** PSpice 23.1.0 (29 September 2023) ** ID# 0 ********

 ** Profile: "SCHEMATIC1-tp4_montecarlo"  [ D:\GD\Sintesis de redes activas\sintesis_redes_activas\Tp4\tp4_montecarlo-PSpiceFiles\SCH


 ****     Diode MODEL PARAMETERS


******************************************************************************




               X_U1A.dx        X_U1A.dy        X_U1B.dx        X_U1B.dy        
          IS  800.000000E-18  800.000000E-18  800.000000E-18  800.000000E-18 
          RS    1               1.000000E-03    1               1.000000E-03 
         CJO                   10.000000E-12                   10.000000E-12 


**** 11/28/24 22:08:02 *** PSpice 23.1.0 (29 September 2023) ** ID# 0 ********

 ** Profile: "SCHEMATIC1-tp4_montecarlo"  [ D:\GD\Sintesis de redes activas\sintesis_redes_activas\Tp4\tp4_montecarlo-PSpiceFiles\SCH


 ****     BJT MODEL PARAMETERS


******************************************************************************




               X_U1A.qx        X_U1B.qx        
               PNP             PNP             
       LEVEL    1               1            
          IS  800.000000E-18  800.000000E-18 
          BF  166.7           166.7          
          NF    1               1            
          BR    1               1            
          NR    1               1            
         ISS    0               0            
          RE    0               0            
          RC    0               0            
         CJE    0               0            
         VJE     .75             .75         
         CJC    0               0            
         VJC     .75             .75         
         MJC     .33             .33         
        XCJC    1               1            
         CJS    0               0            
         VJS     .75             .75         
          KF    0               0            
          AF    1               1            
          CN    2.2             2.2          
           D     .52             .52         


**** 11/28/24 22:08:02 *** PSpice 23.1.0 (29 September 2023) ** ID# 0 ********

 ** Profile: "SCHEMATIC1-tp4_montecarlo"  [ D:\GD\Sintesis de redes activas\sintesis_redes_activas\Tp4\tp4_montecarlo-PSpiceFiles\SCH


 ****     Resistor MODEL PARAMETERS


******************************************************************************




               R_R1            R_R2            R_R3            R_R4            
           R    1               1               1               1            


               R_R5            R_R6            R_R7            
           R    1               1               1            


**** 11/28/24 22:08:02 *** PSpice 23.1.0 (29 September 2023) ** ID# 0 ********

 ** Profile: "SCHEMATIC1-tp4_montecarlo"  [ D:\GD\Sintesis de redes activas\sintesis_redes_activas\Tp4\tp4_montecarlo-PSpiceFiles\SCH


 ****     Capacitor MODEL PARAMETERS


******************************************************************************




               C_C1            C_C2            C_C3            C_C4            
           C    1               1               1               1            


**** 11/28/24 22:08:02 *** PSpice 23.1.0 (29 September 2023) ** ID# 0 ********

 ** Profile: "SCHEMATIC1-tp4_montecarlo"  [ D:\GD\Sintesis de redes activas\sintesis_redes_activas\Tp4\tp4_montecarlo-PSpiceFiles\SCH


 ****     Current Controlled Switch MODEL PARAMETERS


******************************************************************************




               X_U1A.sw2       X_U1A.sw1       X_U1A.sw3       X_U1A.sw4       
         RON    1               1               1               1            
        ROFF   10.000000E+06   10.000000E+06   10.000000E+06   10.000000E+06 
         ION    0              -1.000000E-06   -1.000000E-06    0            
        IOFF   -1.000000E-06    0               0              -1.000000E-06 


               X_U1B.sw2       X_U1B.sw1       X_U1B.sw3       X_U1B.sw4       
         RON    1               1               1               1            
        ROFF   10.000000E+06   10.000000E+06   10.000000E+06   10.000000E+06 
         ION    0              -1.000000E-06   -1.000000E-06    0            
        IOFF   -1.000000E-06    0               0              -1.000000E-06 


**** 11/28/24 22:08:02 *** PSpice 23.1.0 (29 September 2023) ** ID# 0 ********

 ** Profile: "SCHEMATIC1-tp4_montecarlo"  [ D:\GD\Sintesis de redes activas\sintesis_redes_activas\Tp4\tp4_montecarlo-PSpiceFiles\SCH


 ****     SMALL SIGNAL BIAS SOLUTION       TEMPERATURE =   27.000 DEG C

                      SENSITIVITY NOMINAL

******************************************************************************



 NODE   VOLTAGE     NODE   VOLTAGE     NODE   VOLTAGE     NODE   VOLTAGE


(   IN)    0.0000  (  OUT) 279.3E-06  (N00201)   10.0000 (N00215)  -10.0000     

(N00407) 911.5E-06 (N00415) 16.78E-06 (N00733) 718.7E-06 (N00800) 464.1E-06     

(N00996) 279.3E-06 (N01000) 472.0E-06 (X_U1A.6)-135.2E-09                       

(X_U1A.7) 716.4E-06                   (X_U1A.8) 716.4E-06                       

(X_U1A.9)    0.0000                   (X_U1A.a)   10.0000                       

(X_U1A.b)-1.159E-06                   (X_U1B.6)-56.28E-09                       

(X_U1B.7) 291.0E-06                   (X_U1B.8) 291.0E-06                       

(X_U1B.9)    0.0000                   (X_U1B.a)   10.0000                       

(X_U1B.b)-1.234E-06                   (X_U1A.10)     .6085                      

(X_U1A.11)   -9.9602                  (X_U1A.12)   -9.9604                      

(X_U1A.13)     .5946                  (X_U1A.14)     .5946                      

(X_U1A.53)    8.5000                  (X_U1A.54)   -9.1780                      

(X_U1A.90)-44.95E-06                  (X_U1A.91)   40.0000                      

(X_U1A.92)  -40.0000                  (X_U1A.99)    0.0000                      

(X_U1B.10)     .6081                  (X_U1B.11)   -9.9602                      

(X_U1B.12)   -9.9604                  (X_U1B.13)     .5941                      

(X_U1B.14)     .5942                  (X_U1B.53)    8.5000                      

(X_U1B.54)   -9.1780                  (X_U1B.90) 234.4E-06                      

(X_U1B.91)   40.0000                  (X_U1B.92)  -40.0000                      

(X_U1B.99)    0.0000                  




    VOLTAGE SOURCE CURRENTS
    NAME         CURRENT

    V_V1        -4.437E-03
    V_V2        -4.436E-03
    V_V3         1.118E-08
    X_U1A.vb    -1.352E-12
    X_U1A.vc     8.500E-12
    X_U1A.ve     1.044E-11
    X_U1A.vlim  -4.495E-08
    X_U1A.vlp   -4.000E-11
    X_U1A.vln   -4.000E-11
    X_U1B.vb    -5.628E-13
    X_U1B.vc     8.501E-12
    X_U1B.ve     1.044E-11
    X_U1B.vlim   2.344E-07
    X_U1B.vlp   -4.000E-11
    X_U1B.vln   -4.000E-11

    TOTAL POWER DISSIPATION   8.87E-02  WATTS

 NODE   VOLTAGE     NODE   VOLTAGE     NODE   VOLTAGE     NODE   VOLTAGE


(   IN)    0.0000  (  OUT) 279.3E-06  (N00201)   10.0000 (N00215)  -10.0000     

(N00407) 911.5E-06 (N00415) 16.78E-06 (N00733) 718.7E-06 (N00800) 464.1E-06     

(N00996) 279.3E-06 (N01000) 472.0E-06 (X_U1A.6)-135.1E-09                       

(X_U1A.7) 716.4E-06                   (X_U1A.8) 716.4E-06                       

(X_U1A.9)    0.0000                   (X_U1A.a)   10.0000                       

(X_U1A.b)-1.159E-06                   (X_U1B.6)-56.28E-09                       

(X_U1B.7) 291.0E-06                   (X_U1B.8) 291.0E-06                       

(X_U1B.9)    0.0000                   (X_U1B.a)   10.0000                       

(X_U1B.b)-1.234E-06                   (X_U1A.10)     .6085                      

(X_U1A.11)   -9.9602                  (X_U1A.12)   -9.9604                      

(X_U1A.13)     .5946                  (X_U1A.14)     .5946                      

(X_U1A.53)    8.5000                  (X_U1A.54)   -9.1780                      

(X_U1A.90)-44.95E-06                  (X_U1A.91)   40.0000                      

(X_U1A.92)  -40.0000                  (X_U1A.99)    0.0000                      

(X_U1B.10)     .6081                  (X_U1B.11)   -9.9602                      

(X_U1B.12)   -9.9604                  (X_U1B.13)     .5941                      

(X_U1B.14)     .5942                  (X_U1B.53)    8.5000                      

(X_U1B.54)   -9.1780                  (X_U1B.90) 234.4E-06                      

(X_U1B.91)   40.0000                  (X_U1B.92)  -40.0000                      

(X_U1B.99)    0.0000                  




    VOLTAGE SOURCE CURRENTS
    NAME         CURRENT

    V_V1        -4.437E-03
    V_V2        -4.436E-03
    V_V3         1.118E-08
    X_U1A.vb    -1.351E-12
    X_U1A.vc     8.500E-12
    X_U1A.ve     1.044E-11
    X_U1A.vlim  -4.495E-08
    X_U1A.vlp   -4.000E-11
    X_U1A.vln   -4.000E-11
    X_U1B.vb    -5.628E-13
    X_U1B.vc     8.501E-12
    X_U1B.ve     1.044E-11
    X_U1B.vlim   2.344E-07
    X_U1B.vlp   -4.000E-11
    X_U1B.vln   -4.000E-11

    TOTAL POWER DISSIPATION   8.87E-02  WATTS

 NODE   VOLTAGE     NODE   VOLTAGE     NODE   VOLTAGE     NODE   VOLTAGE


(   IN)    0.0000  (  OUT) 279.3E-06  (N00201)   10.0000 (N00215)  -10.0000     

(N00407) 911.5E-06 (N00415) 16.78E-06 (N00733) 718.7E-06 (N00800) 464.1E-06     

(N00996) 279.3E-06 (N01000) 472.0E-06 (X_U1A.6)-135.1E-09                       

(X_U1A.7) 716.4E-06                   (X_U1A.8) 716.4E-06                       

(X_U1A.9)    0.0000                   (X_U1A.a)   10.0000                       

(X_U1A.b)-1.159E-06                   (X_U1B.6)-56.28E-09                       

(X_U1B.7) 291.0E-06                   (X_U1B.8) 291.0E-06                       

(X_U1B.9)    0.0000                   (X_U1B.a)   10.0000                       

(X_U1B.b)-1.234E-06                   (X_U1A.10)     .6085                      

(X_U1A.11)   -9.9602                  (X_U1A.12)   -9.9604                      

(X_U1A.13)     .5946                  (X_U1A.14)     .5946                      

(X_U1A.53)    8.5000                  (X_U1A.54)   -9.1780                      

(X_U1A.90)-44.95E-06                  (X_U1A.91)   40.0000                      

(X_U1A.92)  -40.0000                  (X_U1A.99)    0.0000                      

(X_U1B.10)     .6081                  (X_U1B.11)   -9.9602                      

(X_U1B.12)   -9.9604                  (X_U1B.13)     .5941                      

(X_U1B.14)     .5942                  (X_U1B.53)    8.5000                      

(X_U1B.54)   -9.1780                  (X_U1B.90) 234.4E-06                      

(X_U1B.91)   40.0000                  (X_U1B.92)  -40.0000                      

(X_U1B.99)    0.0000                  




    VOLTAGE SOURCE CURRENTS
    NAME         CURRENT

    V_V1        -4.437E-03
    V_V2        -4.436E-03
    V_V3         1.118E-08
    X_U1A.vb    -1.351E-12
    X_U1A.vc     8.500E-12
    X_U1A.ve     1.044E-11
    X_U1A.vlim  -4.495E-08
    X_U1A.vlp   -4.000E-11
    X_U1A.vln   -4.000E-11
    X_U1B.vb    -5.628E-13
    X_U1B.vc     8.501E-12
    X_U1B.ve     1.044E-11
    X_U1B.vlim   2.344E-07
    X_U1B.vlp   -4.000E-11
    X_U1B.vln   -4.000E-11

    TOTAL POWER DISSIPATION   8.87E-02  WATTS

 NODE   VOLTAGE     NODE   VOLTAGE     NODE   VOLTAGE     NODE   VOLTAGE


(   IN)    0.0000  (  OUT) 279.3E-06  (N00201)   10.0000 (N00215)  -10.0000     

(N00407) 911.5E-06 (N00415) 16.78E-06 (N00733) 718.7E-06 (N00800) 464.1E-06     

(N00996) 279.3E-06 (N01000) 472.0E-06 (X_U1A.6)-135.2E-09                       

(X_U1A.7) 716.4E-06                   (X_U1A.8) 716.4E-06                       

(X_U1A.9)    0.0000                   (X_U1A.a)   10.0000                       

(X_U1A.b)-1.159E-06                   (X_U1B.6)-56.28E-09                       

(X_U1B.7) 291.0E-06                   (X_U1B.8) 291.0E-06                       

(X_U1B.9)    0.0000                   (X_U1B.a)   10.0000                       

(X_U1B.b)-1.234E-06                   (X_U1A.10)     .6085                      

(X_U1A.11)   -9.9602                  (X_U1A.12)   -9.9604                      

(X_U1A.13)     .5946                  (X_U1A.14)     .5946                      

(X_U1A.53)    8.5000                  (X_U1A.54)   -9.1780                      

(X_U1A.90)-44.95E-06                  (X_U1A.91)   40.0000                      

(X_U1A.92)  -40.0000                  (X_U1A.99)    0.0000                      

(X_U1B.10)     .6081                  (X_U1B.11)   -9.9602                      

(X_U1B.12)   -9.9604                  (X_U1B.13)     .5941                      

(X_U1B.14)     .5942                  (X_U1B.53)    8.5000                      

(X_U1B.54)   -9.1780                  (X_U1B.90) 234.4E-06                      

(X_U1B.91)   40.0000                  (X_U1B.92)  -40.0000                      

(X_U1B.99)    0.0000                  




    VOLTAGE SOURCE CURRENTS
    NAME         CURRENT

    V_V1        -4.437E-03
    V_V2        -4.436E-03
    V_V3         1.118E-08
    X_U1A.vb    -1.352E-12
    X_U1A.vc     8.500E-12
    X_U1A.ve     1.044E-11
    X_U1A.vlim  -4.495E-08
    X_U1A.vlp   -4.000E-11
    X_U1A.vln   -4.000E-11
    X_U1B.vb    -5.628E-13
    X_U1B.vc     8.501E-12
    X_U1B.ve     1.044E-11
    X_U1B.vlim   2.344E-07
    X_U1B.vlp   -4.000E-11
    X_U1B.vln   -4.000E-11

    TOTAL POWER DISSIPATION   8.87E-02  WATTS

 NODE   VOLTAGE     NODE   VOLTAGE     NODE   VOLTAGE     NODE   VOLTAGE


(   IN)    0.0000  (  OUT) 279.3E-06  (N00201)   10.0000 (N00215)  -10.0000     

(N00407) 911.5E-06 (N00415) 16.78E-06 (N00733) 718.7E-06 (N00800) 464.1E-06     

(N00996) 279.3E-06 (N01000) 472.0E-06 (X_U1A.6)-135.1E-09                       

(X_U1A.7) 716.4E-06                   (X_U1A.8) 716.4E-06                       

(X_U1A.9)    0.0000                   (X_U1A.a)   10.0000                       

(X_U1A.b)-1.159E-06                   (X_U1B.6)-56.28E-09                       

(X_U1B.7) 291.0E-06                   (X_U1B.8) 291.0E-06                       

(X_U1B.9)    0.0000                   (X_U1B.a)   10.0000                       

(X_U1B.b)-1.234E-06                   (X_U1A.10)     .6085                      

(X_U1A.11)   -9.9602                  (X_U1A.12)   -9.9604                      

(X_U1A.13)     .5946                  (X_U1A.14)     .5946                      

(X_U1A.53)    8.5000                  (X_U1A.54)   -9.1780                      

(X_U1A.90)-44.95E-06                  (X_U1A.91)   40.0000                      

(X_U1A.92)  -40.0000                  (X_U1A.99)    0.0000                      

(X_U1B.10)     .6081                  (X_U1B.11)   -9.9602                      

(X_U1B.12)   -9.9604                  (X_U1B.13)     .5941                      

(X_U1B.14)     .5942                  (X_U1B.53)    8.5000                      

(X_U1B.54)   -9.1780                  (X_U1B.90) 234.4E-06                      

(X_U1B.91)   40.0000                  (X_U1B.92)  -40.0000                      

(X_U1B.99)    0.0000                  




    VOLTAGE SOURCE CURRENTS
    NAME         CURRENT

    V_V1        -4.437E-03
    V_V2        -4.436E-03
    V_V3         1.118E-08
    X_U1A.vb    -1.351E-12
    X_U1A.vc     8.500E-12
    X_U1A.ve     1.044E-11
    X_U1A.vlim  -4.495E-08
    X_U1A.vlp   -4.000E-11
    X_U1A.vln   -4.000E-11
    X_U1B.vb    -5.628E-13
    X_U1B.vc     8.501E-12
    X_U1B.ve     1.044E-11
    X_U1B.vlim   2.344E-07
    X_U1B.vlp   -4.000E-11
    X_U1B.vln   -4.000E-11

    TOTAL POWER DISSIPATION   8.87E-02  WATTS

 NODE   VOLTAGE     NODE   VOLTAGE     NODE   VOLTAGE     NODE   VOLTAGE


(   IN)    0.0000  (  OUT) 279.3E-06  (N00201)   10.0000 (N00215)  -10.0000     

(N00407) 911.9E-06 (N00415) 16.78E-06 (N00733) 719.1E-06 (N00800) 464.1E-06     

(N00996) 279.3E-06 (N01000) 472.0E-06 (X_U1A.6)-135.2E-09                       

(X_U1A.7) 716.9E-06                   (X_U1A.8) 716.9E-06                       

(X_U1A.9)    0.0000                   (X_U1A.a)   10.0000                       

(X_U1A.b)-1.159E-06                   (X_U1B.6)-56.35E-09                       

(X_U1B.7) 291.0E-06                   (X_U1B.8) 291.0E-06                       

(X_U1B.9)    0.0000                   (X_U1B.a)   10.0000                       

(X_U1B.b)-1.234E-06                   (X_U1A.10)     .6085                      

(X_U1A.11)   -9.9602                  (X_U1A.12)   -9.9604                      

(X_U1A.13)     .5946                  (X_U1A.14)     .5946                      

(X_U1A.53)    8.5000                  (X_U1A.54)   -9.1780                      

(X_U1A.90)-44.95E-06                  (X_U1A.91)   40.0000                      

(X_U1A.92)  -40.0000                  (X_U1A.99)    0.0000                      

(X_U1B.10)     .6081                  (X_U1B.11)   -9.9602                      

(X_U1B.12)   -9.9604                  (X_U1B.13)     .5941                      

(X_U1B.14)     .5942                  (X_U1B.53)    8.5000                      

(X_U1B.54)   -9.1780                  (X_U1B.90) 234.4E-06                      

(X_U1B.91)   40.0000                  (X_U1B.92)  -40.0000                      

(X_U1B.99)    0.0000                  




    VOLTAGE SOURCE CURRENTS
    NAME         CURRENT

    V_V1        -4.437E-03
    V_V2        -4.436E-03
    V_V3         1.118E-08
    X_U1A.vb    -1.352E-12
    X_U1A.vc     8.500E-12
    X_U1A.ve     1.044E-11
    X_U1A.vlim  -4.495E-08
    X_U1A.vlp   -4.000E-11
    X_U1A.vln   -4.000E-11
    X_U1B.vb    -5.635E-13
    X_U1B.vc     8.501E-12
    X_U1B.ve     1.044E-11
    X_U1B.vlim   2.344E-07
    X_U1B.vlp   -4.000E-11
    X_U1B.vln   -4.000E-11

    TOTAL POWER DISSIPATION   8.87E-02  WATTS

 NODE   VOLTAGE     NODE   VOLTAGE     NODE   VOLTAGE     NODE   VOLTAGE


(   IN)    0.0000  (  OUT) 279.3E-06  (N00201)   10.0000 (N00215)  -10.0000     

(N00407) 911.9E-06 (N00415) 16.78E-06 (N00733) 719.1E-06 (N00800) 464.6E-06     

(N00996) 279.3E-06 (N01000) 472.0E-06 (X_U1A.6)-135.2E-09                       

(X_U1A.7) 716.9E-06                   (X_U1A.8) 716.9E-06                       

(X_U1A.9)    0.0000                   (X_U1A.a)   10.0000                       

(X_U1A.b)-1.159E-06                   (X_U1B.6)-56.28E-09                       

(X_U1B.7) 291.0E-06                   (X_U1B.8) 291.0E-06                       

(X_U1B.9)    0.0000                   (X_U1B.a)   10.0000                       

(X_U1B.b)-1.234E-06                   (X_U1A.10)     .6085                      

(X_U1A.11)   -9.9602                  (X_U1A.12)   -9.9604                      

(X_U1A.13)     .5946                  (X_U1A.14)     .5946                      

(X_U1A.53)    8.5000                  (X_U1A.54)   -9.1780                      

(X_U1A.90)-44.95E-06                  (X_U1A.91)   40.0000                      

(X_U1A.92)  -40.0000                  (X_U1A.99)    0.0000                      

(X_U1B.10)     .6081                  (X_U1B.11)   -9.9602                      

(X_U1B.12)   -9.9604                  (X_U1B.13)     .5941                      

(X_U1B.14)     .5942                  (X_U1B.53)    8.5000                      

(X_U1B.54)   -9.1780                  (X_U1B.90) 234.4E-06                      

(X_U1B.91)   40.0000                  (X_U1B.92)  -40.0000                      

(X_U1B.99)    0.0000                  




    VOLTAGE SOURCE CURRENTS
    NAME         CURRENT

    V_V1        -4.437E-03
    V_V2        -4.436E-03
    V_V3         1.118E-08
    X_U1A.vb    -1.352E-12
    X_U1A.vc     8.500E-12
    X_U1A.ve     1.044E-11
    X_U1A.vlim  -4.495E-08
    X_U1A.vlp   -4.000E-11
    X_U1A.vln   -4.000E-11
    X_U1B.vb    -5.628E-13
    X_U1B.vc     8.501E-12
    X_U1B.ve     1.044E-11
    X_U1B.vlim   2.344E-07
    X_U1B.vlp   -4.000E-11
    X_U1B.vln   -4.000E-11

    TOTAL POWER DISSIPATION   8.87E-02  WATTS

 NODE   VOLTAGE     NODE   VOLTAGE     NODE   VOLTAGE     NODE   VOLTAGE


(   IN)    0.0000  (  OUT) 279.3E-06  (N00201)   10.0000 (N00215)  -10.0000     

(N00407) 911.5E-06 (N00415) 16.79E-06 (N00733) 718.7E-06 (N00800) 464.1E-06     

(N00996) 279.3E-06 (N01000) 472.0E-06 (X_U1A.6)-135.2E-09                       

(X_U1A.7) 716.4E-06                   (X_U1A.8) 716.4E-06                       

(X_U1A.9)    0.0000                   (X_U1A.a)   10.0000                       

(X_U1A.b)-1.159E-06                   (X_U1B.6)-56.28E-09                       

(X_U1B.7) 291.0E-06                   (X_U1B.8) 291.0E-06                       

(X_U1B.9)    0.0000                   (X_U1B.a)   10.0000                       

(X_U1B.b)-1.234E-06                   (X_U1A.10)     .6085                      

(X_U1A.11)   -9.9602                  (X_U1A.12)   -9.9604                      

(X_U1A.13)     .5946                  (X_U1A.14)     .5946                      

(X_U1A.53)    8.5000                  (X_U1A.54)   -9.1780                      

(X_U1A.90)-44.95E-06                  (X_U1A.91)   40.0000                      

(X_U1A.92)  -40.0000                  (X_U1A.99)    0.0000                      

(X_U1B.10)     .6081                  (X_U1B.11)   -9.9602                      

(X_U1B.12)   -9.9604                  (X_U1B.13)     .5941                      

(X_U1B.14)     .5942                  (X_U1B.53)    8.5000                      

(X_U1B.54)   -9.1780                  (X_U1B.90) 234.4E-06                      

(X_U1B.91)   40.0000                  (X_U1B.92)  -40.0000                      

(X_U1B.99)    0.0000                  




    VOLTAGE SOURCE CURRENTS
    NAME         CURRENT

    V_V1        -4.437E-03
    V_V2        -4.436E-03
    V_V3         1.119E-08
    X_U1A.vb    -1.352E-12
    X_U1A.vc     8.500E-12
    X_U1A.ve     1.044E-11
    X_U1A.vlim  -4.495E-08
    X_U1A.vlp   -4.000E-11
    X_U1A.vln   -4.000E-11
    X_U1B.vb    -5.628E-13
    X_U1B.vc     8.501E-12
    X_U1B.ve     1.044E-11
    X_U1B.vlim   2.344E-07
    X_U1B.vlp   -4.000E-11
    X_U1B.vln   -4.000E-11

    TOTAL POWER DISSIPATION   8.87E-02  WATTS

 NODE   VOLTAGE     NODE   VOLTAGE     NODE   VOLTAGE     NODE   VOLTAGE


(   IN)    0.0000  (  OUT) 279.3E-06  (N00201)   10.0000 (N00215)  -10.0000     

(N00407) 911.5E-06 (N00415) 16.78E-06 (N00733) 718.7E-06 (N00800) 464.1E-06     

(N00996) 279.3E-06 (N01000) 472.0E-06 (X_U1A.6)-135.1E-09                       

(X_U1A.7) 716.4E-06                   (X_U1A.8) 716.4E-06                       

(X_U1A.9)    0.0000                   (X_U1A.a)   10.0000                       

(X_U1A.b)-1.159E-06                   (X_U1B.6)-56.28E-09                       

(X_U1B.7) 291.0E-06                   (X_U1B.8) 291.0E-06                       

(X_U1B.9)    0.0000                   (X_U1B.a)   10.0000                       

(X_U1B.b)-1.234E-06                   (X_U1A.10)     .6085                      

(X_U1A.11)   -9.9602                  (X_U1A.12)   -9.9604                      

(X_U1A.13)     .5946                  (X_U1A.14)     .5946                      

(X_U1A.53)    8.5000                  (X_U1A.54)   -9.1780                      

(X_U1A.90)-44.95E-06                  (X_U1A.91)   40.0000                      

(X_U1A.92)  -40.0000                  (X_U1A.99)    0.0000                      

(X_U1B.10)     .6081                  (X_U1B.11)   -9.9602                      

(X_U1B.12)   -9.9604                  (X_U1B.13)     .5941                      

(X_U1B.14)     .5942                  (X_U1B.53)    8.5000                      

(X_U1B.54)   -9.1780                  (X_U1B.90) 234.4E-06                      

(X_U1B.91)   40.0000                  (X_U1B.92)  -40.0000                      

(X_U1B.99)    0.0000                  




    VOLTAGE SOURCE CURRENTS
    NAME         CURRENT

    V_V1        -4.437E-03
    V_V2        -4.436E-03
    V_V3         1.118E-08
    X_U1A.vb    -1.351E-12
    X_U1A.vc     8.500E-12
    X_U1A.ve     1.044E-11
    X_U1A.vlim  -4.495E-08
    X_U1A.vlp   -4.000E-11
    X_U1A.vln   -4.000E-11
    X_U1B.vb    -5.628E-13
    X_U1B.vc     8.501E-12
    X_U1B.ve     1.044E-11
    X_U1B.vlim   2.344E-07
    X_U1B.vlp   -4.000E-11
    X_U1B.vln   -4.000E-11

    TOTAL POWER DISSIPATION   8.87E-02  WATTS

 NODE   VOLTAGE     NODE   VOLTAGE     NODE   VOLTAGE     NODE   VOLTAGE


(   IN)    0.0000  (  OUT) 279.8E-06  (N00201)   10.0000 (N00215)  -10.0000     

(N00407) 911.5E-06 (N00415) 16.78E-06 (N00733) 718.7E-06 (N00800) 464.1E-06     

(N00996) 279.8E-06 (N01000) 472.4E-06 (X_U1A.6)-135.1E-09                       

(X_U1A.7) 716.4E-06                   (X_U1A.8) 716.4E-06                       

(X_U1A.9)    0.0000                   (X_U1A.a)   10.0000                       

(X_U1A.b)-1.159E-06                   (X_U1B.6)-56.45E-09                       

(X_U1B.7) 291.5E-06                   (X_U1B.8) 291.5E-06                       

(X_U1B.9)    0.0000                   (X_U1B.a)   10.0000                       

(X_U1B.b)-1.235E-06                   (X_U1A.10)     .6085                      

(X_U1A.11)   -9.9602                  (X_U1A.12)   -9.9604                      

(X_U1A.13)     .5946                  (X_U1A.14)     .5946                      

(X_U1A.53)    8.5000                  (X_U1A.54)   -9.1780                      

(X_U1A.90)-44.95E-06                  (X_U1A.91)   40.0000                      

(X_U1A.92)  -40.0000                  (X_U1A.99)    0.0000                      

(X_U1B.10)     .6081                  (X_U1B.11)   -9.9602                      

(X_U1B.12)   -9.9604                  (X_U1B.13)     .5941                      

(X_U1B.14)     .5942                  (X_U1B.53)    8.5000                      

(X_U1B.54)   -9.1780                  (X_U1B.90) 234.8E-06                      

(X_U1B.91)   40.0000                  (X_U1B.92)  -40.0000                      

(X_U1B.99)    0.0000                  




    VOLTAGE SOURCE CURRENTS
    NAME         CURRENT

    V_V1        -4.437E-03
    V_V2        -4.436E-03
    V_V3         1.118E-08
    X_U1A.vb    -1.351E-12
    X_U1A.vc     8.500E-12
    X_U1A.ve     1.044E-11
    X_U1A.vlim  -4.495E-08
    X_U1A.vlp   -4.000E-11
    X_U1A.vln   -4.000E-11
    X_U1B.vb    -5.645E-13
    X_U1B.vc     8.501E-12
    X_U1B.ve     1.044E-11
    X_U1B.vlim   2.348E-07
    X_U1B.vlp   -4.000E-11
    X_U1B.vln   -4.000E-11

    TOTAL POWER DISSIPATION   8.87E-02  WATTS

 NODE   VOLTAGE     NODE   VOLTAGE     NODE   VOLTAGE     NODE   VOLTAGE


(   IN)    0.0000  (  OUT) 279.3E-06  (N00201)   10.0000 (N00215)  -10.0000     

(N00407) 911.5E-06 (N00415) 16.78E-06 (N00733) 718.7E-06 (N00800) 464.1E-06     

(N00996) 279.3E-06 (N01000) 472.0E-06 (X_U1A.6)-135.1E-09                       

(X_U1A.7) 716.4E-06                   (X_U1A.8) 716.4E-06                       

(X_U1A.9)    0.0000                   (X_U1A.a)   10.0000                       

(X_U1A.b)-1.159E-06                   (X_U1B.6)-56.28E-09                       

(X_U1B.7) 291.0E-06                   (X_U1B.8) 291.0E-06                       

(X_U1B.9)    0.0000                   (X_U1B.a)   10.0000                       

(X_U1B.b)-1.234E-06                   (X_U1A.10)     .6085                      

(X_U1A.11)   -9.9602                  (X_U1A.12)   -9.9604                      

(X_U1A.13)     .5946                  (X_U1A.14)     .5946                      

(X_U1A.53)    8.5000                  (X_U1A.54)   -9.1780                      

(X_U1A.90)-44.95E-06                  (X_U1A.91)   40.0000                      

(X_U1A.92)  -40.0000                  (X_U1A.99)    0.0000                      

(X_U1B.10)     .6081                  (X_U1B.11)   -9.9602                      

(X_U1B.12)   -9.9604                  (X_U1B.13)     .5941                      

(X_U1B.14)     .5942                  (X_U1B.53)    8.5000                      

(X_U1B.54)   -9.1780                  (X_U1B.90) 234.4E-06                      

(X_U1B.91)   40.0000                  (X_U1B.92)  -40.0000                      

(X_U1B.99)    0.0000                  




    VOLTAGE SOURCE CURRENTS
    NAME         CURRENT

    V_V1        -4.437E-03
    V_V2        -4.436E-03
    V_V3         1.118E-08
    X_U1A.vb    -1.351E-12
    X_U1A.vc     8.500E-12
    X_U1A.ve     1.044E-11
    X_U1A.vlim  -4.495E-08
    X_U1A.vlp   -4.000E-11
    X_U1A.vln   -4.000E-11
    X_U1B.vb    -5.628E-13
    X_U1B.vc     8.501E-12
    X_U1B.ve     1.044E-11
    X_U1B.vlim   2.344E-07
    X_U1B.vlp   -4.000E-11
    X_U1B.vln   -4.000E-11

    TOTAL POWER DISSIPATION   8.87E-02  WATTS

 NODE   VOLTAGE     NODE   VOLTAGE     NODE   VOLTAGE     NODE   VOLTAGE


(   IN)    0.0000  (  OUT) 279.3E-06  (N00201)   10.0000 (N00215)  -10.0000     

(N00407) 911.5E-06 (N00415) 16.78E-06 (N00733) 718.7E-06 (N00800) 464.1E-06     

(N00996) 279.3E-06 (N01000) 472.0E-06 (X_U1A.6)-135.2E-09                       

(X_U1A.7) 716.4E-06                   (X_U1A.8) 716.4E-06                       

(X_U1A.9)    0.0000                   (X_U1A.a)   10.0000                       

(X_U1A.b)-1.159E-06                   (X_U1B.6)-56.28E-09                       

(X_U1B.7) 291.0E-06                   (X_U1B.8) 291.0E-06                       

(X_U1B.9)    0.0000                   (X_U1B.a)   10.0000                       

(X_U1B.b)-1.234E-06                   (X_U1A.10)     .6085                      

(X_U1A.11)   -9.9602                  (X_U1A.12)   -9.9604                      

(X_U1A.13)     .5946                  (X_U1A.14)     .5946                      

(X_U1A.53)    8.5000                  (X_U1A.54)   -9.1780                      

(X_U1A.90)-44.95E-06                  (X_U1A.91)   40.0000                      

(X_U1A.92)  -40.0000                  (X_U1A.99)    0.0000                      

(X_U1B.10)     .6081                  (X_U1B.11)   -9.9602                      

(X_U1B.12)   -9.9604                  (X_U1B.13)     .5941                      

(X_U1B.14)     .5942                  (X_U1B.53)    8.5000                      

(X_U1B.54)   -9.1780                  (X_U1B.90) 234.4E-06                      

(X_U1B.91)   40.0000                  (X_U1B.92)  -40.0000                      

(X_U1B.99)    0.0000                  




    VOLTAGE SOURCE CURRENTS
    NAME         CURRENT

    V_V1        -4.437E-03
    V_V2        -4.436E-03
    V_V3         1.118E-08
    X_U1A.vb    -1.352E-12
    X_U1A.vc     8.500E-12
    X_U1A.ve     1.044E-11
    X_U1A.vlim  -4.495E-08
    X_U1A.vlp   -4.000E-11
    X_U1A.vln   -4.000E-11
    X_U1B.vb    -5.628E-13
    X_U1B.vc     8.501E-12
    X_U1B.ve     1.044E-11
    X_U1B.vlim   2.344E-07
    X_U1B.vlp   -4.000E-11
    X_U1B.vln   -4.000E-11

    TOTAL POWER DISSIPATION   8.87E-02  WATTS



Mean Deviation =    7.7248E-06
Sigma          =    1.0879E-03

 RUN                    MAX DEVIATION FROM NOMINAL

R_R5 R_R5 R            1.3728E-03  (1.26 sigma)  higher  at F =  707.95
                        (   1.8495% change per 1% change in Model Parameter)

C_C1 C_C1 C            1.3668E-03  (1.26 sigma)  lower  at F =    1.3804E+03
                        (  -1.8427% change per 1% change in Model Parameter)

C_C2 C_C2 C            1.0830E-03  (1.00 sigma)  higher  at F =    1.0715E+03
                        (   1.0652% change per 1% change in Model Parameter)

C_C4 C_C4 C            1.0769E-03  ( .99 sigma)  higher  at F =  691.83
                        (   1.5812% change per 1% change in Model Parameter)

C_C3 C_C3 C            1.0766E-03  ( .99 sigma)  higher  at F =  691.83
                        (   1.5806% change per 1% change in Model Parameter)

R_R6 R_R6 R            1.0757E-03  ( .99 sigma)  lower  at F =  912.01
                        (  -1.058 % change per 1% change in Model Parameter)

R_R1 R_R1 R            1.0671E-03  ( .98 sigma)  lower  at F =    1.4125E+03
                        (  -1.5679% change per 1% change in Model Parameter)

R_R2 R_R2 R            1.0453E-03  ( .96 sigma)  lower  at F =    1.4125E+03
                        (  -1.536 % change per 1% change in Model Parameter)

R_R3 R_R3 R          787.0200E-06  ( .72 sigma)  higher  at F =    1.1220E+03
                        (    .7675% change per 1% change in Model Parameter)

R_R4 R_R4 R          764.1300E-06  ( .70 sigma)  lower  at F =    1.1482E+03
                        (   -.7447% change per 1% change in Model Parameter)

R_R7 R_R7 R             0       (0.00 sigma)  unchanged  at F =    0     
                        (   0     % change per 1% change in Model Parameter)


**** 11/28/24 22:08:02 *** PSpice 23.1.0 (29 September 2023) ** ID# 0 ********

 ** Profile: "SCHEMATIC1-tp4_montecarlo"  [ D:\GD\Sintesis de redes activas\sintesis_redes_activas\Tp4\tp4_montecarlo-PSpiceFiles\SCH


 ****     SMALL SIGNAL BIAS SOLUTION       TEMPERATURE =   27.000 DEG C

                      WORST CASE ALL DEVICES

******************************************************************************



 NODE   VOLTAGE     NODE   VOLTAGE     NODE   VOLTAGE     NODE   VOLTAGE


(   IN)    0.0000  (  OUT) 326.5E-06  (N00201)   10.0000 (N00215)  -10.0000     

(N00407) 822.7E-06 (N00415) 17.48E-06 (N00733) 629.9E-06 (N00800) 420.1E-06     

(N00996) 326.5E-06 (N01000) 519.2E-06 (X_U1A.6)-118.4E-09                       

(X_U1A.7) 627.7E-06                   (X_U1A.8) 627.7E-06                       

(X_U1A.9)    0.0000                   (X_U1A.a)   10.0000                       

(X_U1A.b)-1.159E-06                   (X_U1B.6)-65.84E-09                       

(X_U1B.7) 340.6E-06                   (X_U1B.8) 340.6E-06                       

(X_U1B.9)    0.0000                   (X_U1B.a)   10.0000                       

(X_U1B.b)-1.282E-06                   (X_U1A.10)     .6084                      

(X_U1A.11)   -9.9602                  (X_U1A.12)   -9.9604                      

(X_U1A.13)     .5945                  (X_U1A.14)     .5946                      

(X_U1A.53)    8.5000                  (X_U1A.54)   -9.1780                      

(X_U1A.90)-44.95E-06                  (X_U1A.91)   40.0000                      

(X_U1A.92)  -40.0000                  (X_U1A.99)    0.0000                      

(X_U1B.10)     .6081                  (X_U1B.11)   -9.9602                      

(X_U1B.12)   -9.9604                  (X_U1B.13)     .5942                      

(X_U1B.14)     .5943                  (X_U1B.53)    8.5000                      

(X_U1B.54)   -9.1780                  (X_U1B.90) 281.5E-06                      

(X_U1B.91)   40.0000                  (X_U1B.92)  -40.0000                      

(X_U1B.99)    0.0000                  




    VOLTAGE SOURCE CURRENTS
    NAME         CURRENT

    V_V1        -4.437E-03
    V_V2        -4.436E-03
    V_V3         1.295E-08
    X_U1A.vb    -1.184E-12
    X_U1A.vc     8.500E-12
    X_U1A.ve     1.044E-11
    X_U1A.vlim  -4.495E-08
    X_U1A.vlp   -4.000E-11
    X_U1A.vln   -4.000E-11
    X_U1B.vb    -6.584E-13
    X_U1B.vc     8.500E-12
    X_U1B.ve     1.044E-11
    X_U1B.vlim   2.815E-07
    X_U1B.vlp   -4.000E-11
    X_U1B.vln   -4.000E-11

    TOTAL POWER DISSIPATION   8.87E-02  WATTS


**** 11/28/24 22:08:02 *** PSpice 23.1.0 (29 September 2023) ** ID# 0 ********

 ** Profile: "SCHEMATIC1-tp4_montecarlo"  [ D:\GD\Sintesis de redes activas\sintesis_redes_activas\Tp4\tp4_montecarlo-PSpiceFiles\SCH


 ****     UPDATED MODEL PARAMETERS         TEMPERATURE =   27.000 DEG C

                      WORST CASE ALL DEVICES

******************************************************************************



Device       MODEL        PARAMETER    NEW VALUE    
C_C1         C_C1         C                .9           (Decreased)  
C_C2         C_C2         C               1.1           (Increased)  
C_C3         C_C3         C               1.1           (Increased)  
C_C4         C_C4         C               1.1           (Increased)  
R_R1         R_R1         R                .9           (Decreased)  
R_R2         R_R2         R                .9           (Decreased)  
R_R3         R_R3         R               1.1           (Increased)  
R_R4         R_R4         R                .9           (Decreased)  
R_R5         R_R5         R               1.1           (Increased)  
R_R6         R_R6         R                .9           (Decreased)  
R_R7         R_R7         R               1             (Unchanged)  
    

**** 11/28/24 22:08:02 *** PSpice 23.1.0 (29 September 2023) ** ID# 0 ********

 ** Profile: "SCHEMATIC1-tp4_montecarlo"  [ D:\GD\Sintesis de redes activas\sintesis_redes_activas\Tp4\tp4_montecarlo-PSpiceFiles\SCH


 ****     SORTED DEVIATIONS OF V(OUT)      TEMPERATURE =   27.000 DEG C

                      WORST CASE SUMMARY

******************************************************************************





Mean Deviation =     .3845
Sigma          =    0     

 RUN                    MAX DEVIATION FROM NOMINAL

WORST CASE ALL DEVICES
                         .3845  higher  at F =    1.4454E+03
                        ( 161.88% of Nominal)



          JOB CONCLUDED

**** 11/28/24 22:08:02 *** PSpice 23.1.0 (29 September 2023) ** ID# 0 ********

 ** Profile: "SCHEMATIC1-tp4_montecarlo"  [ D:\GD\Sintesis de redes activas\sintesis_redes_activas\Tp4\tp4_montecarlo-PSpiceFiles\SCH


 ****     JOB STATISTICS SUMMARY


******************************************************************************



  Total job time (using Solver 1)   =         .13
